* LVDS INPUT LOAD netlist for A5


.SUBCKT LVDS_INPUT_LOAD in ina vccpd vcc

.PROT freelib
5a2Z[7-u#/js;B-i:'%ep$v,C'/25B]+):fJ5H#uC(1y)e-u>9%J;X5i#'%s$B-,(2/e5BvwC'f:9H]uC:xJ5ejH>(%J)[
8
y396Lv4\V2XxP/9#+Y
\%2:,9;<w22<9zw(6
-)$+g/2%Xp[S*;qW.2P[
9I:\>A$+g/qW.2P[
94:\0U$+ZKqW.2P[
8
q
5&[(J7[W(E1h9bu,w]_0
[O3W'9120!3pm(J(==RQ
y
a&Zt%#/:/b:7i]uCi$\l
s-w%9=27!54>(/(==rq
%nu2[7JW3E%h7<V)*[/0
L
F& 9Xx p7jX(/%:9H;P2Jz
aAH#;(912(!;H>:*(==5q
y
a&Zt%#;391-pXv,M2 s6D8
/p9pH$yjw>e1Vp=-)*[j0
[O5Wo[X:$b+,(IHET334y
6
9?80sWaM7U[GsW(E1h7>Vhc]_0
[OuWaM7U[GsW(9 -PhJh#*\h)[
8
<?=2'$/3w(e1:(>5Jp($\l
s2L:F 2p7vXEi%)(0.Pp6
Z
[?#<2:FU2p!j+>2*J0<*[Y
kGe$/;w(9h-*$rH)*\H9[
8
<?=2'$/rw(e1:(H5ip'$\l
s3+:Fv2dJ#,h'1Hp><632z
a7=#*p9=2)!;PEi/(==5q
%n j$/RW(9u-0I3hP*\h0[
8
<?=2'$4\w(e1s5H;,M]_0
[=;W!=X;$=+j#:/hT334y
k s$4\wAuxJze-i>2257$8
/z[v2h##+:'bJ(JvH9! sl
[
,?+*72H#[W(E1);j;I3]_0
[=5W!==2g73xwSVSs0.pP6
>h(7c '98z$j+I3I1tT334y
kGH*7C '9125!-3>sv(==vq
y
a&Zt%#=Ow[D6%#+h/1e0J;H>]_0
[O3,:rP78M*2:/XYZE;p('257<8
q
5&[(J7%;!=.IJM#+H/1v5>V+e]_0
[O-+:rP78M*20912)!;h#Iu(==RQ
y
a&Zt%# %/x:zXj3)(h+5.:q
%' 28SJWaM7U[GsW3EHYP><632Z
aAB-w+k12p73XWuhe50.Pp6
Z
[?#<2:=p7 DC):/b:p<Uup'$\l
s-3:=p7 DC):kxJz=rL)i257$8
/z'/28yC[tw22p7vX('fs(0.Pp6
Z
[?#<2:=.ijm#+h/1H)$vL)]_0
[bRW+M$'w7%;!=.IJM#4HIVS5b<632Z
aAB5w+m$'W7jw)e%TS<Y)*[j0
L
F& 9XxZ77jX(/jy9eji2Jz
a5i# 398Z$B+u>u*Ht33HY
kGJ*7\P:/x)z>U+)2257<8
q
5&[(J7\U:/B:P=RpP( I [
gU#9[j$#D#Tj8($=+4mS/ET33hy
kU:$#-w'9j-pivPC*\H9[
gdm[Xz57JWwEVS9<;)*[J0
L
F& 9XxZS7jX(/Uy7ev,2Jz
aAJ-w+ux:$>+L>iUet33HY
6
9?80sW091-PbypeI$\L
s;3:mx;$<+u)s1st33HY
kUs$m#*M9 -p$3LM*\H0[
g3P9.2D<#IH[Ft0><632Z
aS$#V:Rp78m*2:ubH*i-i9! yl
s23W9.2p73X)u*T)0.P>6
Z
[?#<2:m4'$X++3:Ue5=*[Y
kG)*7t! 9127!ji>(%(==vq
y
a&Zt%#Tz57($X++((fH;JYTt6
>);7*d'x228j#pHU1v9=<63IZ
aAHjw2N='t7jw)evy*XY)*[v0
L
F& 9XxiW.SD'X22p!j+)[%+0=*[Y
k/H$.tT N='t7%;!=.ijm#,huUe*i<632z
a)B#T0]7!G%<w!==2)!3LMu/(==5q
%:u26M*2Z57($4\WPE1Y9=;)*[J0
[OVI:].IJO[29912s!3j>UV(==RQ
y
a&Zt%#T<y>H$X++3u*)7i*[Y
k/+$.z5%[x781#4h[%:(B<632z
a)$#T<y>H$4\w)e*J0<Y)*[j0
[OVj:]03[=#+:$BvP=R,9! +L
[
,?+*7269'/c91-P=JU>2/I [
gIe9$U:S-W2b6A77yx3'%:00.p)6
>S;7*K;K%2H#[WPE j;E3)*[J0
[<JW2b6A57c :SBY0IVh9! YL
s2439$u:s-w(9j-7Bru#*\H0[
8
<?=2'$.z5%ux:zXj3M(h)7.:q
%I%269'/m9.27!J,3*\h9[
gdPUXI/8g3:/XhZj]lw[257<8
q
5&[(J7*K;K/2P!Jp3:uY0.:Q
%I/269'/>9$U:S3W3EVj7>3)*[V0
[OR4:]03[h#+:SBSP$]U9! +L
[
,?+*72:,D#+M$'$x++3/1+7>*[y
kvy$8%;!=.ij7t! 9 -SX-i3*\H0[
g4w96lV4\v2xXA$>+p#SHhT33hy
kG+*7'=Ow[D6%#+:$b+)$;H9! +l
[
,?+*72:,9;<W22P!JpP:*t;.:Q
%IF2:,9;<W228Yc[TW227!]+P:%(==5Q
%212:,9;<W226M*2Z57($j+j(2V(==5Q
%nJh$8%Yob8($x#pH'VY5$<63:Z
0
N|\) 94IJ-#+H/1h(<33#]_0
[$-WR]7/$8%;!=.IJ7;x>'H)*0.p)6
>Ys7$t -XlV4\v2xXjZbJh3:257$8
/z2/2\.SF:/xVz<33#$257$8
q
5&[(J7B>[%X:ZxJ,e'Jhs.:Q
%2V2+n0;:5XSZIyI#*\h9[
gh)9kxXY#*39 -)I-l#*\h0[
ghw9kxXY# oW_\H0#hHUJt00.p)6
>Y*7B>[%Xd$h+hcIV)T33hy
kje$NbFO9.mj7vXWifJ(0.P)6
>!(x#>J-P2P7Vx3:*)*0.pP6
Z
[?#<2:_K\\7jX('%T*B3Tt6
>t77B>T0XA$I+j)[/vT33hy
k*J$Nb[r9p:$H+LM[vyt33HY
k*)$Nb[r9;+$=+H#$UHt334Y
k*s$Nb[r9$u:s;w#e/:*B;)*[j0
[IRWJ__M$.Z5%:XtZxVpwI257$8
/z$j2+N:!:/xHz<-L3'257H8
q
5&[(J7B>Z0X:ZxJ4($Fh(.:Q
%$*2+n2!:]g;J0#4H21)9E<632Z
a(>#>jN428J#Ph:%ySH<63iz
aAi]wj_Gm$X#uhif+9><63iz
0
N|\) 9kxa)#+H/ S7EJp2jZ
a*X#>jNE2dJ#3h$ );J<632z
a*=#>jNE2h##ih$%+9=<632z
a*B#>jNE23yC 0]7D$=+PC(fet334Y
kh)$NbD79.2;!-4Ci/(==5q
%S/2+n2O:].IJO[299%-9hyjP*\h9[
gdeIXx+O4W(9*-;E-4)*\h0[
8
<?=2'$Nb*O91-pX3LW(hJ6D8
/E2xX+/dw09%-;Hj,E*\H9[
gde$Xx+/DW(9 -7<R)*[V0
L
F& 9XxX+4dw(e1:9e-3#($\l
sYL:_K7v7\;!J_7t7-XC$j)50.P)6
>v;7B>!%Xd\%#,H(FvPI<632Z
a;X#>jwp2+N0;:ubV(iYH9! yl
s2,39KXhy#+:ubJ5evL9! +l
[
,?+*72+nL;:/B:P<VpP$JI [
g,c9kxFY#>JWP29!y4)/J(==5Q
%(u2+nL;:_k>V7;xc(1E*0.p)6
>E)7B>,%XzV4:[!*XhZ>Vpc'257$8
/z(v2+Nl;:/x)z<]HM2257<8
q
5&[(J7B>2YX:Zx3le/Vv6d8
/#2xX+.'w%9 -piriC*\H0[
g,w9kx68# %/X+Z<;,3'257$8
/#sxX+.'w09j-S$],9! yl
s],:_Ki:7b>t0xHzH3,#2257<8
/3/12+N*5:_K!'75X#[hH90.P)6
>!7x3WJ_$3$x#pH[J+7><63:Z
0
N|\) 9kx\.#+H/ +;x5,2jZ
a7X-wj_4i$NbT;9v-9$jip*\H9[
gp(UXx+r*W2b6A57Rxe[FE;0.p)6
>hPh#>J0$2H##3HU/vT334y
kGHp<#>j0$2p7UX3$/y00.Pp6
Z
[?#<2:_KP67jX([/H7B*[Y
k :97b>6]x;$$+J#(fyt33HY
k :(7b>6]x787-X)s1)*0.Pp6
>hP>#>J\$26M*2Z57($b+33$F+T33hy
k :;7b>6]xX+D$wpevs;=])*[j0
[O3p(9kx<.#+:IB+7xR39! +L
[
,?+*72+n4t:/B:7jV4)I$\L
s3P39KX'.#$::b+9$;J9! yl
s3PC9KX'.#*39f-0e-Lp*\H9[
gp3UXx+)*WaIXSZb;lmS257$8
/3[/2+N4T:w[2)!jiMiv(==5q
%[ +$nBO29.2(!yj(2257$8
/3[j2+N4T:yIPv9C)::bJpB-,9! yl
s3PW9KX'.#>j-p27!;u#sv(==rq
%[ v$nBO29kx<.#pHI%j(=<63IZ
aA=3,:_KF67jwpev+;<;)*[v0
L
F& 9XxX+2*w(e1H)Br,W]_0
[=-+:_k#67[W)E*Y;j3)*[J0
[=-p:_k#67c ::B)9jJ49! YL
s3uC9KXE.##+5xJz$vi#2257<8
/3'U2+NpT:mxHz<v+E2257<8
/3'/2+NpT:].ijo[299%-5H]+E*\H9[
gpcIXx+2*WJ__M$$+3mUuvT33hy
k J97b>8]xX++*w#ejyp>Y)*[j0
[O3Uw9kxe.#+:IBh9EVh9! +L
[
,?+*72+nBt:/B:7b]4>[$\L
s3uE9KX+.#>j0$27!Y4E(U(==rq
%[%E$nB>29$U:S;WcE/:*$3)*[J0
[=;+:_kx67TW)E j(hR)*[J0
[=;p:_kx67Dp:[BhPbyl9! +L
s2PM'xX+N*w(9*-)XUJ>*\H0[
8
<?=2'$Nb+291-p=rL32Ui [
gpmUXx+x*WJ_4I$=++m: tT334y
k ))7b>(]xX+.'w)e%TS>U)*[j0
[=;4:_k:67*K;K 2(!-,(/V(==5Q
%[uY$nB+29.25!Jp>Uu(==RQ
%[ut$nB+298zg7;xm[%S(0.pP6
>!7jyWJ_1I$x#jH[ j5><63IZ
0
N|\) 9kx7.#+H/ t(Euj2jZ
a7J]wj_ i$4\wCe%s*=<63iz
a7Hjwj_ i$4\$:[be(>]H9! +l
s3i39KX7.# 39%-0iv+3*\H0[
gp>'Xx+=*W2n='T7;xwI*S90.p)6
>h)j#>J[$269'/39/-9h]jP*\h9[
gp>:Xx+=*W2b6A)7;xeUJET33hy
k s07b>3]xX+R*wEe*H)H5)*[j0
[=Vh:_kh67B>(]XEZb3,>'257$8
/z[/T$NbP29120!-i)iU(==rq
y
a&Zt%#>j'$2p!j+C'*T5<*[Y
k s*7b>C]xX+.'w)e V7X;)*[j0
[=V,:_kj67c '9 -sI;,c*\h9[
gpP/Xx+b*W%9 -7xyh3*\h9[
gd3I 2+n-t:/XvZE;,3U257$8
q
5&[(J7B>m]X:Zx3+eU%j6d8
/3i%2+N;T:w[;$=++C$jTt334Y
k +S7b>M]x7873X([U:90.Pp6
>h0h#>JU$2[7ux([VY50.p)6
>!7<RWJ_uI$x#3H$%:*j<63IZ
0
N|\) 9kx).#+H/ h7bR42jZ
a7<5wj_/i$Nb329 -7ejJW*\H0[
gpP$Xx+h*WJ_%I$<++c/J)T33hy
k +*7b>>]xX+.'w>e*s5BY)*[j0
[=R,:_kS67T! 9u-9$]4e*\h9[
gp)/Xx+h*W!==27!-I('V(==RQ
%[Jh$nBI298z$=+U#:*+T334y
kGH9B#>j:$2p7rX)' H70.Pp6
Z
[?#<2:3$;/XE (91-pX-iW(UH6D8
/32U2'.[k(q[:$m$2:'bV(e;i9! yl
s3H>9EiG9j'+/xX+-dwMe%J5H3)*[j0
[=54:3$;/xe (9kxHY#UHIJ:P<<632Z
a7$5w7]=up5\+:_K<v73XE/%T;0.P)6
>!7$uW7]=UP5\+:/XEZbyjPU257$8
q
5&[(J7% q2/2P!J+(2ujPb*[y
k y*7% Q2/269'/C9v-5Hju9! yl
s2P)(xL865i:/xHzXY)*[j0
L
F& 9XxL865H:/b:p=3uC/hi [
gpw/Xl865h:_kh67uxP2u:50.p)6
>h(=#=+CJY$.Z5%[X)Zb-j>[257$8
/z[*J$,\s)2x:$H+3(ufst33JY
6
9?80sWF=DY(7Jx(/ h*<RtT6
>h(j#=+CJt$nBp29V-;=5p9! YL
s3J>9IZ.$Uw2N='t7vXC$U))0.PW6
>!7IRWF=DY(7JWPEVh7<V)*[J0
L
F& 9XxL86Uu:/b:p=3,3'vi [
gpw2Xl86uU:_kh67Rx#I*Ys0.p)6
>h(I#=+C*j$.Z5%:XSZ<54eS257I8
/z[*V$,\sW'x:$<+i#s%Vt33HY
6
9?80sWF=Dt07Jx(/1+;EVUw]_0
[=u,:r[G(<#t<Y>j$<++>(JvT33hy
kGH*X#=+c*+$X#,h:/+;B<63$z
0
N|\) 9iz.I5W(E1:7b5Ie'$\L
s3L39IZ.i5wj_ i$i+LE2vHt33HY
k V57% Q$j269'/39U-7Bvi9! yl
s2PEuxL86UH:/xHz$;JC:257$8
q
5&[(J7% q$H2P!J+('Ht0<VtT6
>h*h#=+C*v$nBI29%-)=3I>*\h9[
gd3SV23#/je912)!5I((V(==uQ
y
a&Zt%#=+chs$X++(/U+0=;,2Jz
a7>5wf=dV)7b>C]xHzH]P)*\H([
gpe$Xl86yI:_kI:73xm/1+90.pw6
>h*>#=+CHS$S#UH[%j5j<632Z
aA=Y,:R[g*H#+:[bH)e]i9! yl
[
,?+*723#/le91-PxJU3:FSs.:Q
%n EP7% qSH2P7-x3:FSs0.p)6
Z
[?#<2:R[g*e#+h/1:*JU+3i$\l
s3,39IZ.>]wj_GF$<+HE:jTt33HY
k e57% Qsf2h##3hihe5H<63$z
aA=]3:R[g*e#+:'b)5$rH9! yl
[
,?+*723#/,c91-Px333[VS6d8
/3(/23#/,C9KXA)#Ph'UH0><63iz
aA=]4:R[g;B#+:$be;$3u9! Tl
[
,?+*723#/,m91-PxJjc2V:7.:Q
%n E97% q(u2P7uxc2V:70.p)6
Z
[?#<2:R[g;H#+h/1HSivPW]_0
[=]j:r[G;h#>J<$2)!VI>2*(==5Q
%n E*7% q(/2P7]xc(JE;0.p)6
Z
[?#<2:R[g;>#+h/1H0H-32Jz
a7e]wf=de*7b>8]xHzX-PCi257$8
/z'1:$,\s#sx:$=+3)2 Vt334Y
6
9?80sWF=DE;7Jx(/1+5=J+w]_0
[bJp:r[G;E#>J<$2)!Jpw'257$8
/z'1J$,\s#(x:$=+P#'hTt33HY
6
9?80sWF=DhPx#+H/1:0$-I(I$\L
s-+M9IZ.=j+:_KP67;X#s +;0.P)6
>!5xVWF=DhPx#+:[BY)bVh9! YL
[
,?+*723#/p([X:ZxJ+)2%t(b*[y
k%:07% Q[1H$,\s#sxTzJ],C$257i8
/C/j23#/P([xX+2*wCe*VS=-)*[j0
[bJj:r[G7x3WJ_-I$b+4m$1jT33hy
kGJp>#=+c :77jwpejT9<Y)*[*0
L
F& 9XxL863+C91-pXj,E(fTS.:q
%'1E$,\S3/%2+nPt::BE5E349! YL
s-P(9IZ.=ju:_KP67vX#$1+*0.P)6
Z
[?#<2:R[g7Xvw(e1:7<3H)s$\l
s-P39IZ.=ji:_KP673X(//e90.P)6
>!5=-WF=DhPh#+:[B))bJI9! +L
[
,?+*723#/p(IX:ZxJpmI*t0.:Q
%' )$,\S3/V2+n9t::B)(=]49! YL
s2u3:xL863+p912;!-+p2257$8
q
5&[(J7% q[1Y$x++(/J+9E-j2jZ
a5=rwf=dHp$#=+c :)7UX>[/V90.PW6
>j7$#=+C :97B>8]XjZhuUe(257$8
/C[*23#/P(2xX++*wCe*V;H;)*[j0
[O-pe9iz.=Jh:/X+Z$RIw:257I8
q
5&[(J7% q[ :$x++(/uhPxRj2jZ
a5=]wf=dH7X#>j3$27!-upih(==Uq
%n%jP7% q[ :$x#UH(*vP=<632Z
0
N|\) 9iz.=3p:/B:PxuUw/1+6d8
/z'%H$,\s3[ 2p7UXC$1:00.P)6
Z
[?#<2:R[g7=-w(e1:pJr4Eshi [
gdc'%23#/p3'X:$j+4PSHvT33hy
6
9?80sWF=Dh7<#+H/1:sj3+>'$\L
s-uM9IZ.=34:_KF673X(:fT;0.PW6
>j5h#=+C h07TW3EH+sh])*[*0
[O-UP9iz.=34:/X)Zx-+3*\h9[
8
<?=2'$,\s3[j2p!j+(uv);$vTt6
>!5b5WF=Dh7$#+:UB+sE5I9! YL
[
,?+*723#/pcIX:ZxJ+>Iuj9j*[y
k%J(7% Q[%+$.z5%'x)z=]P>*\H9[
gdc'H23#/pcIX:$=+3>[%)T33hy
6
9?80sWF=Dh5$#+H/1:)jVhP($\L
s-u#9IZ.=-H:]03[J#3h[fJ(0.P)6
>!5jJWF=Dh5$#+:[Bh0jy,9! YL
[
,?+*723#/pc$X:ZxJ+w:*t7j*[y
k%)77% Q[%T$.z5%ux)z>]4>u257$8
/Cu%23#/PC$x 77-X#u*+S0.P)6
>!5j;WF=Dh5I#+:2BS)=5h9! tL
[
,?+*723#/pcSX:ZxJ+wSu:7=*[y
k%))7% Q[%V$.z5%:x)zivu#2257$8
/z'U+$,\s3'h2p7vX(s*H00.P)6
Z
[?#<2:R[g7Jrw(e1:pJ5J#'$\l
s-3)9IZ.=;4:% 25!-4)/ (==5q
%n%)(7% q[u+$x#pH:%)7E<632Z
0
N|\) 9iz.=;h:/B:Px]lwSVt6d8
/z'UV$,\s3uj2p7]XE$h+(0.P)6
Z
[?#<2:R[g7JUw(e1:p$r4E2%i [
gUm(Xl8633w9kxar#IH(Jt(=<632Z
aABv+:R[g7JUw(9 -S>5up*\H9[
8
<?=2'$,\s3uf2p!j+($/J5eUTt6
>j)=#=+C );7% q[ut$b++>2V+T33jy
k%s57% Q[Ue$Nb!29%-9H]PE*\H([
gdc:u23#/pm(X:$$+,PU/(==5Q
y
a&Zt%#=+c sp7jX(/1V7JY3C]_0
[bVI:r[G7hJWJ_kI$$++m/JST33hy
kGJ)<#=+c sp7jw3e*H(0.P)6
Z
[?#<2:R[g7H3w(e1:p>YuC[hi [
gU>2Xl863I39iz.=V+:UBEP$yp9! tL
s-iW9IZ.=vP:_Km67;X([*s90.PW6
>!5hyWF=Dh)=#+:SBh5Euh9! YL
[
,?+*723#/p>IX:ZxJ+c/HYs.:Q
%'/E$,\S3:V2+n*5:[Bv7j-,9! tL
s2up/xL863ip9127!]+>(*(==5q
y
a&Zt%#=+c s97jX(/1J;$;JE]_0
[bRp:r[G7h5WJ_4I$b+pm[1ST33hy
k%+57% Q[/y$NbD79 -0BvHp*\H([
gdcIu23#/p>2X:$$+l('*hT33jy
6
9?80sWF=Dh0<#+H/1:5E3332$\L
s-4>9IZ.=r4:_K:67]X#uvHt33LY
k%+07% Q[v+$Nb!29%-p=Y3W*\H9[
gUP2Xl8634P9kxa)#pH:HE9><63$Z
aABrJ:R[g7<rw(9j-)$vJ>*\H([
8
<?=2'$,\s3ij2p!j+('%s*evTt6
>j0>#=+C +97B>2YXhZIy,P2257I8
/z've$,\s3ij2p7-X(2fe*0.P)6
Z
[?#<2:R[g7$-w(e1:pi5P3'$\l
s-H(9IZ.=5u:mx+z<ri#(257$8
/z'jH$,\s32%2p73XWsf)50.P)6
Z
[?#<2:R[g7$;w(e1:pi;3CsUi [
gU)'Xl863hm9kxP.#UH2H:9b<63$Z
aAB53:R[g7$;w(9*-p$vJW*\H9[
8
<?=2'$,\s32/2p!j+(sf)perTt6
>j9h#=+C Y)7% q[Jj$b+h)SFST33jy
k%y07% Q[js$Nb+29%-(e5Hp*\H([
gdc2J23#/p):X:$>+3e:uET33hy
6
9?80sWF=Dh9<#+H/1:sIu3($$\L
s-HW9IZ.=54:%125!-4#u257$8
/z'jV$,\s32v2p73Xp[UT(0.P)6
Z
[?#<2:R[g7$Yw(e1:pJ-3#/ji [
gU)(Xl863he9kx68#pH'FE5j<63$Z
aABU+:R[g7$Yw(9U-7X]PM*\H9[
8
<?=2'$,\s3$ 2p!j+(ijJS<]Tt6
>j(=#=+C t77B>T0XhZI5jcI257I8
/C$%23#/PW[x p7-X3/*y70.P)6
>!5I;WF=Dh(=#+:UB)sE-h9! YL
[
,?+*723#/pw'X:ZxJ+>//:;<*[y
k%T)7% Q[*J$NbT;9 -*Hj+M*\H([
gUwIXl863jc9.25!3l>2u(==5Q
%n%t97% q[*j$x#pH2*jsb<632Z
0
N|\) 9iz.=uj:/B:PxV+(SVE6d8
/C$*23#/PW$xX+D$wCev+(<-)*[j0
[O-je9iz.=uj:/XhZhRp($257$8
q
5&[(J7% q[*v$x++(/%E5=;tT6
>!5I]WF=Dh(>#+:'BE5=;)*[J0
L
F& 9XxL863J#91-pXjuE( :).:q
%'H:$,\S3$F2Dj#UH:uS7$<632Z
aABYP:R[g7i]w(9/-0$YJ)*\H([
8
<?=2'$,\s3s/2p!j+(iUV;HYTt6
>j*b#=+C v)7TW3E*j;>])*[*0
[by3:r[G7>VWaUXSZI]lcU257$8
/z'hs$,\s3s/2p7vX3s%y70.PW6
Z
[?#<2:R[g7e;w(e1:pH5,W/hi [
gUeIXl863,m9.27!y3m$*(==uQ
%'HY$,\S3(u2Dj#3H(VY(I<632Z
aABYJ:R[g7e;w(9v-0$]33*\H([
8
<?=2'$,\s3(j2p!j+('hs7erTt6
>j*>#=+C E97\;!j_7T73xPUuYs0.pw6
>j*E#=+C E97H3:'Bh5ER49! tL
s2u#/xL863,)9125!vJp2U(==5q
y
a&Zt%#=+c e(7jX(/1Tp>Yu)]_0
[b]p:r[G7EuWJ_gf$<+p3:FST33hy
kGJ;B#=+c e(7jw3efTSJ-)*[j0
L
F& 9XxL863,E91-pXju#2UJ;.:q
%'F)$,\S3(H2+n4t:'B)sx;)*[J0
[b]I:r[G7EyW+%8\ 4<WcEuv5Iy)*[*0
[O-,P9iz.=]l:/X)ZEVjc*\h([
8
<?=2'$,\sC/12p!j+((%HpivTt6
>j;$#=+C%:P7[WeE1Y5$R)*[J0
[O-,w9iz.bJ+:/XhZ=Vl((257$8
q
5&[(J7% q'1h$x++(/Jv5IV42jZ
aAB]L:R[g5X3w(9j-*BUip*\H9[
8
<?=2'$,\sC[12p!j+(ivypH3Tt6
>j;E#=+C%hP7B>[%XhZEV4>$257I8
/M/123#/u3/x;$e+i(s*Vt33JY
kG)p=#=+c%Hp7jw>e/J)e])*[j0
L
F& 9XxL86-PW91-pXj,M'1y6D8
/M/%23#/u3$x;$J+J>2het33HY
kG)pJ#=+c%H(7jwpevTSi3)*[j0
L
F& 9XxL86-u)91-pXj,Cs s6D8
/M//23#/uC2x;$i+,W$fTt33HY
kG)p<#=+c%J97jw3eU:SH;)*[j0
L
F& 9XxL86-uW91-pXj,((1J7.:q
%U1Y$,\Sc'*2+n4t:$Bt5=J39! YL
s23($xL86-uW9127!;H#[h(==5q
y
a&Zt%#=+c%J*7jX(/1V(evi>]_0
[O;+e9iz.b-l:/XvZI]I>:257$8
q
5&[(J7% q'%E$x++([1)5EVtT6
>!sx]WF=Dj5E#+:[B:sb]I9! +L
[
,?+*723#/Um:X:ZxJ+)I%Y7b*[y
kUHp7% Q'Us$Nbo29v-9<jLE*\H9[
gdm[ 23#/Um:X:$>+jP'uET33jy
6
9?80sWF=Djs<#+H/1:(<J,eI$\L
s233'xL86-3p912(!;iWuf(==5q
y
a&Zt%#=+c%sp7jX(/1e*B5uM]_0
[j33:r[G5hJWJ_kI$I+p>:FtT33hy
kG)7H#=+c%sp7jwCejV7B5)*[j0
L
F& 9XxL86-iM91-pX3i>'1H6D8
/M[v23#/u>uxX+N*wEeUT(H5)*[*0
[j3h:r[G5h;W09 -5x-3m*\h0[
gdm[*23#/U>UX:$=+4P( jT33hy
6
9?80sWF=Dj)h#+H/1:)=Vh#[$\L
s;PE9IZ.Bvi:_K\\73XW2*J70.PW6
>!s=]WF=Dj)h#+:UBE(x3,9! YL
[
,?+*723#/U>IX:ZxJ+P$H:;I*[y
kG)5X#=+c%s07jwpe*VpeU)*[j0
L
F& 9XxL86-i#91-pXjHp$ e).:q
%nuj77% q'/E$x#hHI*h;h<632Z
0
N|\) 9iz.bR+:/B:Px;lwS E6d8
/M'%23#/up/xX+N*wMe%e9=<632z
aAJ-3:R[g5<jw(9v-*Bj,W*\H([
8
<?=2'$,\sCi 2p!j+(:*V9HvTt6
>)5h#=+C%+77*d'x225!y+(:V(==5Q
%nuj07% q'Vh$x#pH(H+;E<632Z
0
N|\) 9iz.bR4:/B:Px5,#2VY6d8
/M'j23#/upixiA1S)::bT9H;H9! yl
s23C$xL86-4p9125!-3C'257$8
q
5&[(J7% q'Jh$x++(/Hhs$;42jZ
aSBYwf=dJ9=#Tz57($J++Wujyt33HY
kG)5e#=+c%y77jwpe1y5$])*[j0
L
F& 9XxL86-H)91-pXj,)i%)0.:q
%nu)P7% q'JY$x#,H2Vjs<<632Z
0
N|\) 9iz.bu+:/B:Pxujw[ )6d8
/zuUH$,\sC$12p7UXW$ HS0.P)6
Z
[?#<2:R[g5ivw(e1:p$54Cuhi [
g3m'Xl86-j>9$U:S3WPEHjsb])*[J0
[O;3m9iz.buI:/XvZb]+e:257I8
q
5&[(J7% q'*+$x++([%v)<*[y
kU))7% Q'*+$Nb329 -7>rL>*\H0[
gdmUV23#/UwIX:$E+l)I*ET33jy
6
9?80sWF=Dj(>#+H/1h0Eypm]_0
[j;h:r[G5IyWJ_uI$=+3([F+T334y
kG)Si#=+c%T*7jw3e*T)iv)*[j0
L
F& 9XxL86-J#91-pX3iMu*e6D8
/Muh23#/uW(xL86-JE9 -7>U+)*\H9[
g3m(Xl86-j#9kxs.#jH:F:7<<63$Z
aAJv+:R[g5i]w(9 -5HjP#*\H0[
8
<?=2'$,\sCs%2p!j+($hJ5$;Tt6
>))=#=+C%v57B>m]XYZ=Rh)(257$8
/zu/J$,\sCs%2p73X)2veS0.P)6
Z
[?#<2:R[g5>vw(e1:pHYL3iji [
gdm:u23#/Ue:X:$h+le[VYT33hy
6
9?80sWF=Dj*<#+H/1:0<-+P:$\L
s23>:xL86-Lp9120!ru(i/(==5q
y
a&Zt%#=+c%V*7jX(/1)*BYPC]_0
[jV4:r[G5>yWa[XjZ>-j)U257$8
/zu/y$,\sCsh2p73X(/1s;0.P)6
Z
[?#<2:R[g5e-w)efVpXU)*/vi [
g3>$Xl86-,c94IJ-#pH[/h)0.pw6
>))>#=+C%E57'=oW[d6%#lHUH:9><63SZ
aAJv,:R[g5e-w(9%-0B]uW*\H([
8
<?=2'$,\sC(U2p!j+([U)(B3Tt6
>)0x#=+C%Es7% q'Fj$b+Iw[uST33jy
kU+77% Q'f)$R*2[9h-7$5H>*\H([
g3P'Xl86-,m96lV4\v2xXhZ$Vp>(257I8
/zuv)$,\sC(U2p73X((%y50.PW6
Z
[?#<2:R[g5evw(e1:pB;43u i [
g3P:Xl86-,>94IJ-#pH21Y*E<632Z
aS<rwf=dJ;H#5f%8ZW.Sw3evs(XU)*[*0
[O;4)9iz.b]I:/XhZ>-,)U257I8
q
5&[(J7% q'F+$x++(/%+)bJj2jZ
aS<Uwf=dJ;<#V:[b+(BYH9! Tl
s23psxL86-,p9127!]JCi257$8
q
5&[(J7% q'FY$x++(/uY(I5l2jZ
aS<]wf=dJ;$#!2X327!U3#(f(==Uq
%UJ:$,\Sc(J2D=#UHS%+7E<632Z
aAJ5P:R[g5e5w(9%-9J]uE*\H([
8
<?=2'$,\sC(*2p!j+('v:0H-Tt6
>)9b#=+C%E(7$t -XhZj;3m(257I8
/M2U23#/u#$xLv4\V2XxHzi5uCs257$8
/zujs$,\sC(*2p73X#[UH(0.PW6
Z
[?#<2:R[g5eYw(e1:p=v3C:%i [
g3)IXl86-,e9iz.b]h::Bh)<539! tL
s;H)9IZ.B]L:R[g5evw>e1y(<-)*[*0
[j5j:r[G5EyWR]7/$j++3S1ET33jy
kUy*7% Q'fV$/3w3e*T0i;)*[*0
[O;h#9iz.b]l:/XhZj3jc2257I8
q
5&[(J7% q'FE$x++(/ );IVh2jZ
aSijwf=dJ;e#=+c%e(7vX3s/VS0.PW6
>)(=#=+C%E;7% q'F+$h+pc'HvT33jy
kUT57% Q'fe$,d#+m$'$B+33u/+t33JY
kG)(J#=+c%e;7jwMeU+SH5)*[*0
L
F& 9XxL86;+(91-pXjPM[1VS.:q
%U*S$,\Sm/12\.sf:[B:P$3)*[*0
[ju4:r[GsxJWF%8zw.sWeE1t;xR)*[*0
[O;j)9iz.jJ+:/XhZ$33c(257I8
q
5&[(J7% qU1Y$x++(/ SPx532jZ
aSiUwf=d)p$#=+cU:p7-X>/fV)0.PW6
>)(>#=+Cu:97$t -XhZ=u,PS257I8
/M$f23#/3(2xLv4\V2XxHz<U33:257i8
/zuh:$,\sM/j2p7vXp2vV50.PW6
Z
[?#<2:R[gSXUw(e1:pJvL('fi [
g3e[Xl86;+w9iz.jJh::Bj(Iyl9! tL
s;LC9IZ.JjJ:mxHzH5iM2257i8
/zuh)$,\sM/*2p7-X#/j:(0.P)6
Z
[?#<2:R[gS=-w(e1:pBrHC:/i [
g3e:Xl86;pc9kxDY#,H[JjP><63SZ
aS>rwf=d)7B#V:[bs5$vi9! Tl
s23E2xL86;PC9127!YLW$U(==5q
y
a&Zt%#=+cUHS7jX(/1s*<vP#]_0
[jyj:r[Gs=;WJ_; $=+j>/uhT33jy
kG)*>#=+cUHS7jwMef:(Xr)*[j0
L
F& 9XxL86;P>91-pXju#:/+(.:q
%UHE$,\Sm[/23#/33UXtZI;p3:257I8
/M(123#/33:xD$e+3W2jJt33LY
kG);=#=+cUH)7jw3ev:;er)*[j0
L
F& 9XxL86;P)91-pXjuEujV*.:q
%UFj$,\Sm[J2'.[K(Q[:$=+jPU%+T33jy
kUeS7% Qu y$Nb8O9v-p=;4>*\H([
gdm(/23#/332X:$E+p(U*YT33jy
6
9?80sWF=D)7I#+H/1:0xRhwS$\L
s;,p9IZ.J3J:R[gS=5wEe%y5=<63$z
aSe5wf=d)7i#>j.p2S!rJ3$h(==5q
%UFt$,\Sm[*2+nH;:[BY)I]h9! tL
s23#sxL86;PW912)!]3#( (==Uq
y
a&Zt%#=+cUH*7jX(/1)9H54W]_0
[j],:r[Gs=yWF=D)7h#4H2*t)I<63$Z
a)Xjwf=d)7>#V:[b)piUL9! Tl
s2i([xL86;PE9125!]iE//(==5q
y
a&Zt%#=+cUH;7jX(/1J0<rP>]_0
[hJU:r[Gs=]WF=D)7$#IH'uY7$<63$Z
a)X;wf=d)7e#o250:-#jw#e*))eY)*[h0
[hJI:r[Gs=]WJ_3 $=+U#$ )T33jy
kGsp<#=+cUH;7jw3ef:)H5)*[j0
L
F& 9XxL86;u391-pXj3Ci H5.:q
%:1Y$,\Sm' 2+nH;:[BE0Eu)*[*0
[OV+w9iz.j-p:/XjZhRI)'257$8
q
5&[(J7% qU%j$x++(/%h(I542jZ
a)XYwf=d)5B#=+cUJ775X(/v)*0.PW6
>SPE#=+Cuj57% qU j$h+I(:/vT33jy
k/Hp7% Qu%J$Nb*O9%-5XY,>*\H([
gd>[ 23#/3c'X:$E+pP$JST33jy
6
9?80sWF=D)5<#+H/1:5bJUc]_0
[h3U:r[GsbRW7]=UP5\+:'B:9x;49! tL
s2i3uxL86;up912;!;L)[%(==Uq
y
a&Zt%#=+cUJ97jX(/1)9Bj4)]_0
[h3I:r[Gsb5WF=D)5<#hH[/)T33jy
k/H07% Qu%y$Nb*O9 -9>]+3*\H([
gd>[J23#/3c2X:$b+lm$uYT33hy
6
9?80sWF=D)5I#+H/1:5<V,w2$\L
svPW9IZ.J-J:R[gSBrw>e/)5<5)*[*0
[h3l:r[GsbuW7]=UP5\+:SB)5jR39! vL
svP#9IZ.J-J:_K/v73XM(je;0.PW6
>!)bJWF=D)5I#+:[Bv*jRj9! YL
[
,?+*723#/3m/X:ZxJ+cIF:0$*[y
k/J77% QuU:$Nb#O9 -*$YJ#*\H9[
gIc'Xl86;3(9kxXY#pH'1t(I<63$Z
aAH-3:R[gSJjw(9 -9ivuE*\H([
8
<?=2'$,\sMu 2p!j+('vsSBYTt6
>S5h#=+Cu)774t'b1W8x#pH$Vv)h<632Z
a)Brwf=d)S=#>j-p27!v4)2j(==Uq
%n/j97% qUuh$x#pHS js><63$Z
0
N|\) 9iz.j;U:/B:Px34>I )6d8
/>'*23#/3M'xL86;339/-0i]iC*\H([
gIcSXl86;3c9iz.j;+::B)s<5h9! tL
svu#9IZ.J;u:3$;/XE (9%-5=-up*\H([
gIm/Xl86;3c9kxHY#UHSuE7<<63$Z
aAH;P:R[gSJ-w(9 -)>vLW*\H([
8
<?=2'$,\sMuU2p!j+('vJ9$3Tt6
>Ssb#=+Cu)s74t'b1W8x#pH$u+0E<632Z
a)J;wf=d)SJ#>j-p27!vu)'U(==Uq
%n/))7% qUu)$x#UH/ v)$<63$Z
0
N|\) 9iz.j;h:/B:Px;3>I h6d8
/>uv23#/3M2xF61z+==125!jL>iv(==Uq
%:uY$,\SmUJ2wrsWcEu+9bR)*[J0
[OV3w9iz.j;h:/XjZx3Uw[257I8
q
5&[(J7% qUut$x++(/%:7b5j2jZ
a)JYwf=d)Si#=+cU)97rXW( J*0.PW6
>SsE#=+Cu)(7% qUu)$h+I)IV(==uQ
%:/:$,\SmU*2'.[K(Q[:$j+,>2VtT33jy
k/s77% QuUT$Nb#O9f-5>-HE*\H*[
gI>'Xl86;3w9.MJ7-xeS1t(0.pw6
>!)h;WF=D)sI#+:'Bh7h-l9! tL
[
,?+*723#/3>IX:ZxJ+mU%j7I*[y
k/s)7% Qu/+$)*$</lZp73X)/j)50.PW6
>S)<#=+CuS07B>!%XhZ>V+#:257I8
/>:j23#/3>ixD\%#uh'/:;B<632z
aAHvJ:R[gSHrw(9 -*X-H>*\H([
8
<?=2'$,\sM:h2p!j+('/Tp>rTt6
>S)>#=+CuS*7B>!%XhZ$ylm:257$8
/>:f23#/3>sxX+-dw3eU:)=<63$z
aAHr+:R[gSHYw(9%-5J5iW*\H([
8
<?=2'$,\sM:f2p!j+([UJ5X]Tt6
>S0=#=+CuS;7% qU/v$h+Ue:VST33jy
k/+57% Qu/e$Nb#O9%-5<YHW*\H([
gd>Iu23#/3>(X:$$+hw$JST33jy
6
9?80sWF=D)0x#+H/1:5h-U)2$\L
sv4>9IZ.Jr+:R[gSHrwpevy5<Y)*[*0
[hR4:r[Gs<JWJ_8 $E+Ic$ (==uQ
%:VY$,\SmI12wrsWcE )(Iy)*[*0
[OV4w9iz.jR+:/XjZb5j#(257I8
q
5&[(J7% qUVh$x++(/%vshyU2jZ
a)<Ywf=d)0=#=+cU+p7vXEu H50.PW6
>S0E#=+Cu+77B>,%XhZ<-j3'257I8
/>2123#/3p[xX+4dwCe1:S$v)*[j0
[OVh39iz.jRp:/XhZER3PI257I8
q
5&[(J7% qUJh$I+4PIVtT3J42jZ
aAH5u:R[gS$3w(9/-;$3u9! Tl
[
,?+*723#/3)'X:ZxJ+m/1E5>*[y
k/yS7% QujJ$Nb8O9 -(i3u)*\H([
gI):Xl86;hc9kxHY#pH(%hP<<632Z
aAH54:R[gS$-w(9U-5H-LE*\H([
8
<?=2'$,\sM2j2p!j+([%s9B3Tt6
>S9$#=+CuY97\;!j_7T7yxP'ut50.pe6
>!)$uWF=D)9$#+:(B+9EJl9! tL
[
,?+*723#/3)$X:ZxJ+3:F)*j*[y
k/y*7% QujT$8%yOB8($e+L($1yt33LY
kGs9e#=+cUy(7jw3e )(=])*[j0
L
F& 9XxL86;HE91-pXjP>(jT0.:q
%:*:$,\Sm2H28Yc[TW229!5jw2H(==yQ
%n/t77% qUJv$x#hH'1)sE<63$Z
0
N|\) 9iz.j5,:/B:Px-+>Iut6d8
/>$%23#/3)(xL86;HE9U-0<;43*\H([
gIwUXl86;h#9[ Hd:#99 -7<yIc*\h([
gd>$/23#/3)(X:$=+4w: vT33hy
6
9?80sWF=D)(x#+H/1:5<V3)U$\L
svJp9IZ.JU+:R[gS$Yw>evs5>3)*[*0
[huh:r[GsIJW;r- /4<W3EVt(bu)*[*0
[OVjw9iz.ju+:/XhZE;p)'257$8
q
5&[(J7% qU*h$x++(/ j;jRtT6
>!)IyWF=D)(=#+:2Bj*jVp9! tL
[
,?+*723#/3w'X:ZxJ+c2uYs$*[y
k/T;7% Qu*J$,\sM$ 2)!UuW[h(==Uq
%:H:$,\Sm$%2:,9;<W227!5pwUF(==uQ
%n/v77% qU*j$x#UH/1h;0.p)6
Z
[?#<2:R[gSi;w#ejT*=<6(i$\l
svLC9IZ.JU3:R[gS$UwCevV0i<63$z
a)>;wf=d)(J#=+cUy97-X(:1yt33JY
kGs*H#=+cUTS7jwpe1+7><63$z
0
N|\) 9iz.juI:/B:Px34c[JI [
gIeIXl86;j>9iz.j5p:'B+;h;j9! tL
svL)9IZ.JUi:yIPv9C):(by9=ji9! Vl
s2iE$xL86;J>9127!3Hpij(==5q
y
a&Zt%#=+cUT07jX(/1H)>]u2Jz
a)>Ywf=d)(<#=+cUT773X#'/)*0.PW6
>S*E#=+Cut07% qUJj$<+l)S tT33jy
k/ep7% Qu*+$Nb#O9U-9J5,9! Tl
s2i#[xL86;Jp912S!vHCif(==Uq
y
a&Zt%#=+cUV77jX(/1s0eUJ#]_0
[h]U:r[Gs>3WF=Djs<#pH2%S9><63$Z
a)e;wf=d)*=#>jwp27!;uM2U(==5q
%n/E)7% qUHh$x#pH$Vv0E<632Z
0
N|\) 9iz.jyU:/B:Px3pe$1E6d8
/>(v23#/3E'xX+-dwpeh)7X;)*[h0
[h]h:r[Gs>-W+%8\ 4<W#E%j*E-)*[H0
[OV,w9iz.jyU:/XtZE;3c2257I8
q
5&[(J7% qUH)$$+h#[HtT3J42jZ
a)eYwf=d)*J#=+cUV57-X>u y;0.PW6
>S;E#=+Cuvs7B>[%XYZxy3m(257>8
/zi1:$,\sMsU2p7;X)i VS0.PW6
Z
[?#<2:R[gS>vw(e1:piYiEs/i [
g4([Xl86;l>9iz.jyp:[B)0j3p9! YL
sr+C9IZ.JYi:_K7v7vXWs%+*0.PW6
>!0x;WF=D)*h#+:2B:7IVl9! YL
[
,?+*723#/3eIX:ZxJ+e:*t)E*[y
kG+pH#=+cUV07jwWe%H(e5)*[j0
L
F& 9XxL86;L)9f-9>;P)*\:0.:q
%I1+$,\SmSJ2:,9;<W22s!5h)' (==yQ
%nV:97% qUHY$x#4HIH)0$<63$Z
0
N|\) 9iz.jyj:/B:Px-+eU v6d8
/p/*23#/3E$xL86;L)9U-(J-,E*\H([
g4(SXl86;lw9[ Hd:#99 -7I]he*\h([
gdP/F23#/3e$X:$=+4#[FhT33hy
6
9?80sWF=D)*>#+H/1:)xR4(($\L
srP(9IZ.JYL:R[gS>rw3e%+;<;)*[j0
[ORp39iz.jyl:/XjZI]4PI257$8
q
5&[(J74h#$/WDx#+H/1+)>3l2jZ
a0=-w72fT)5h+:Rp78m*2:$bT7B5L9! yl
srPM9Ey;iv'A/xLv4\V2X.2S!U,Msh(==5q
%I S$)5,w:L>P7\v2x.20!-p>UV(==uQ
%nVh074h#$/WDx#+:UB:;bJl9! +L
[
,?+*72'$]j>Q;h$x++(Uut9>5tT6
>+7$#O)(*S-/3W72Ft)5H+::B+;xR49! YL
srPW9Ey;iv'A[xZW.SV:'bH)>3)*[j0
[<3l:3JE(he*39i H#Tt MXjZIyhe(257$8
/zi e$)5,W:l>77jw3ehVp$Y)*[v0
L
F& 9XxF9eUi=F%2p!j+Msvs(H*[Y
kvJp74H#$/wdB#=Ow[D6%twCehe)Hv)*[j0
[<-p:3JE(he*c9i H#Tt 9/-5E5lm*\h9[
g4c'Xf9EuI=f%2DMsK%472)!-hm'257$8
/p'U2'$]J>q;J$s#uh/v+SH<632z
aA<-i:3je(HE*C9127!YLMu/(==rq
y
a&Zt%#o)(*s-N4P:/b:pX]J3(/V6D8
/p'v2'$]J>qKF774H#$/wdB#Phs e)><632z
a0B5w72fT)5bo39Ey;iv'A[xJzHjiC2257$8
/p'*2'$]J>qKF77%;!=.ij7vX)21+;0.PW6
>!0byW72Ft)5BO3912s!yU#[*(==5Q
y
a&Zt%#o)(*s-N4u:/b:p=j4>i*i [
g4c(Xf9EuI=_ej$)5,w:L>573x3/JS*0.p)6
>+sx#O)(*S-n4U:3JE(he*(9F-9$Vh>*\h([
g4m[Xf9EuI=_ej$/T2<K,'$=++w$%tT33hy
kG+SB#o)(*s-N4u:/xyz$-H#2257$8
q
5&[(J74h#$/WJ%3W(E1:7$-43[$\L
sr3M9Ey;iv' X 23yC 0]72S!vup(f(==5q
%nV))74h#$/WJ%3W(9 -7xR3#*\h0[
8
<?=2'$)5,W:l'jB#+h/1H0>Yu>]_0
[<;4:3JE(he2 'Xf9EuI=f125!J4m'F(==5Q
%nV)974h#$/WJ%-W(9 -PE;I#*\h0[
8
<?=2'$)5,W:lL863J:/b:pX3L)s*+6D8
/pu*2'$]J>qIZ.=Uw72fT)5hu:[bJ(ir39! yl
sr3E9Ey;iv'f=dH(7%;!=.ij75X>( e70.PE6
>+sE#O)(*S-,\S3$XA$<+,(S/hT33ly
kG+)X#o)(*s-,\s3$x:$H+HW'%Jt33JY
6
9?80sW72Ft)5% q[H2P!J+('Fj0>]tT6
>+)=#O)(*S-,\S3SXf9EuI=_eh$=+U(/VjT33hy
kG+)B#o)(*s-,\s3sx:$=+JCiUTt33HY
6
9?80sW72Ft)5% q' 2P!J+([FE*<*[y
kvsS74H#$/w3#/u39Ey;iv'A[xHzBYL#[257$8
/zi/s$)5,W:lL86-P:/xTzX]4#:257i8
q
5&[(J74h#$/W3#/Uc91-PxJ33U*j;.:Q
%I/+$)5,w:Ll86-U:3JE(he>7'XtZ$y4wU257I8
/zi/y$)5,W:lL86-u:/xJzJ5LW'257$8
q
5&[(J74h#$/W3#/Uw91-PxJ3P2*)(.:Q
%I/t$)5,w:Ll86-j:KXjZ>u,>S257I8
/zi/V$)5,W:lL86-J:/x)zBU,>'257$8
q
5&[(J74h#$/W3#/Ue91-PxJhP:uj7.:Q
%I/E$)5,w:Ll86-l:rP78M*209u-5IuI)*\h9[
g4P/Xf9EuI=r[G5>#*0x0Am%#3HI%E9<<63$Z
aA<rP:3je(HE=+c%V$X#uh( J(><632z
0
N|\) 9eY;IV'F=D)77Jx(/1S*jRU>]_0
[<RU:3JE(he=+Cuh$)5,w:L>773xe2 t70.pw6
>+0j#O)(*S-,\Sm[Xzw.sv:[B+7b;49! tL
s24p:xF9eUi=R[gS=#+::bs;iY39! yl
[
,?+*72'$]j>Qiz.jVW(E1:Pj3lPS I [
g4PIXf9EuI=r[Gsh#O)(*S-/-W3EV+;<3)*[J0
[<Rh:3JE(he=+CuS$,D#+M$'$<++3I/)T33jy
kG+0i#o)(*s-,\sM:x:$=+PC:*yt33HY
6
9?80sW72Ft)5% qUV2P!J+(UuY9<3tT6
>+0>#O)(*S-,\SmIXf9EuI=x7h$=+4e'FYT33hy
kv+;74H#$/w3#/3p9I h#tT 9 -)e]Hp*\H([
gdP212'$]j>Qiz.jRW(9 -9j;4e*\h9[
8
<?=2'$)5,W:lL86;H:/b:pX3Lp[hy6D8
/p2 2'$]J>qIZ.J5wAm7u[gSwpej:7$<63sz
aA<5u:3je(HE=+cUy$X#Ph$f+*<<632z
0
N|\) 9eY;IV'F=DSP7Jx(/1S7I5+m]_0
[<53:3JE(he=+C/:$)5,w:L'Jb#UHSFS50.p)6
>+9h#O)(*S-,\S>/Xf9EuI=f127!u+3SF(==uQ
%nVY074h#$/W3#/I(9127!3p32/(==5Q
y
a&Zt%#o)(*s-,\s>[x:zXj+M[j:pB*[Y
kvy974H#$/w3#/i39I h#tT mxHzeYJ#(257i8
/zijT$)5,W:lL86vP:/xJze5PC'257$8
q
5&[(J74h#$/W3#/Ic91-PxJUe(%t7.:Q
%nVY*74h#$/W3#/Ic9125!y,c$ (==5Q
y
a&Zt%#o)(*s-,\s>ux:zXj+Muvs5e*[Y
kvy;74H#$/w3#/iM9Ey;iv'A[xHz<rH#*\H9[
g4w/Xf9EuI=r[G)j#O)(*S-/JW>Eu))hR)*[*0
[ORj39eY;IV'F=DSs7JW3EuYsER)*[J0
L
F& 9XxF9eUi=R[g0=#+h/1:S=;uC$$\l
srJC9Ey;iv'f=d+774H#$/wj%3w3e1s*$5)*[*0
[<u3:3JE(he=+CVh$,D#+M$'$=+I3/%+T33jy
kG+(H#o)(*s-,\sp[x:$B+33(het33HY
6
9?80sW72Ft)5% qI%2P!J+([Hj0=]tT6
>+(<#O)(*S-,\SP'Xf9EuI=r[G0=#4H2JS*$<63$Z
a0i5w72fT)5% Qi%2'$]J>q7'77YXMuvT*0.PE6
>!0IuW72Ft)5% qI%2P73x3$V)00.p)6
Z
[?#<2:3je(HE=+cv)$X++(/UH5$]i2Jz
a0iYw72fT)5% QiU2'$]J>q;:$=+i>$ +t33JY
kG+(e#o)(*s-,\spux:$B+i(2%Jt33HY
6
9?80sW72Ft)5% qI/2P!J+(U E;<VtT6
>+*x#O)(*S-,\SP:Xf9EuI=f127!V4>:u(==uQ
%nVv774h#$/W3#/4>9125!V,e:*(==5Q
y
a&Zt%#o)(*s-,\spix:zXj+C/UJ;<*[Y
kvV574H#$/w3#/4p9Ey;iv'f=d+S7rXW21:)0.PW6
>!0>;W72Ft)5% qIV2P73x>IJE00.p)6
Z
[?#<2:3je(HE=+cvy$X++(/UH*i5i2Jz
a0>vw72fT)5% Qij2'$]J>qIZ.<vwpev+9BU)*[*0
[<y4:3JE(he=+CVY$,D#+M$'$=+,>'utT33jy
kG+*$#o)(*s-,\sp2x:$B+iM$*Vt33HY
6
9?80sW72Ft)5% qI*2P!J+([/S(j]tT6
>+*I#O)(*S-,\SP$Xf9EuI=f12)!5pPUu(==uQ
%IHv$)5,w:Ll86Rj:rP78M*2:[B:7j],9! tL
s24E(xF9eUi=R[g0i#+::by7J-i9! Tl
[
,?+*72'$]j>Qiz.<yW(E1:Pb5+cU/I [
g4#/Xf9EuI=r[G0>#=oW[d6%#pH:JtP=<63$Z
aA<]P:3je(HE=+cvV$X#uh/U:)B<632z
0
N|\) 9eY;IV'F=D+;7Jx(/1h)hVpP]_0
[<]U:3JE(he=+CVE$)5,w:Ll86Rl::Bj0b3h9! tL
s24#uxF9eUi=R[g0e#+:[b:7>]39! yl
[
,?+*72'$]j>Qiz.$JWwE1j*=R)*/VI [
gdP(/2'$]j>Qiz.$JW(9/-0xu3P*\h([
8
<?=2'$)5,W:lL865P:/b:pX-4Mu*i [
g4#IXf9EuI=r[G9=#O)(*S-,\SP$XSZb;pm$257I8
/p(j2'$]J>qIZ.$3w72fT)5h+:[bTpiji9! yl
sr,W9Ey;iv'f=dy77%;!=.ij7-X((je90.PW6
>!0EyW72Ft)5% q2 2P73x#UH)00.pw6
Z
[?#<2:3je(HE=+cjJ$X++(/ sS>]J2Jz
a0e]w72fT)5% Q2%2'$]J>qIZ.$jwCevJp><63$z
a9Xjw72fT)5% Q2%23yC 0]72*!Y+32 (==Yq
%nJ:774h#$/W3#/hc9127!J,eS*(==5Q
y
a&Zt%#o)(*s-,\s)ux:zXj+3:vV9<*[Y
kj:574H#$/w3#/HM9Ey;iv'A/xez<YuE'257i8
/)/U2'$]J>qIZ.$;wf%8ZW.Sw3e%:*<;)*[*0
[O5+>9eY;IV'F=DYs7JW3Euh5hR)*[*0
L
F& 9XxF9eUi=R[g9H#Jh$ Jt3j42Jz
a9Xrw72fT)5% Q2/2'$]J>qIZ.$;wCe/V5$])*[*0
[$Jh:3JE(he=+CJS$)5,w:L>P7-xmS%Ys0.pw6
>YPI#O)(*S-,\S):XlV4\v2xX+ZhJ+>:257>8
/z21V$)5,W:lL865i:/xJzJjH):257i8
q
5&[(J74h#$/W'jeOu]LzP7Jx(/1h5hRIw]_0
[$J,:3JE(heOmQeO65\+:3JE(he*c9/-)=-le*\h([
gh3/Xf9EuI=3uW'\*'+/X>w%Z/.xXSZE-pm(257I8
/z2 H$)5,W:lFS5492q[:$X#3h[%:)0.PW6
Z
[?#<2:3js9XE*(91-pXri)[/i [
gh3'Xf9h5+=f128SJWmEJh(I-)*[J0
[$33:3JS9xe*(96l<YZ#99*-0$;l#*\h9[
gd)[/2'$Vh(Q;:$x#3H[Vh*<<63IZ
0
N|\) 9eY)$J'a[X:ZxJ3>[1Y).:Q
%2 +$)5I)/L>774h>21WDx#IHIuv*h<632Z
a9=5w72/yp5hP:_Ki:7;XE$/V)0.P)6
>Y7I#O):J:-/3W+K125!-+(I (==5Q
%nJh*74h>21WD=#+:[BvPxy49! +L
[
,?+*72'$Vh(Q;j$x++(UHSP<;tT6
>Y7E#O):J:-/-W;r- /4<W>E*+;Ey)*[J0
[$-+:3JS9xe*c9[AP7-x#U*))0.p)6
>Y5=#O):J:-/-WaM7U[GsW>E%:(jV)*[J0
[O5Uc9eY)$J'a'X:$b++('1jT334y
6
9?80sW72/YP5BO391-Px3+m'/I [
ghcUXf9h5+=_eh$)5I)/L>57-x(:1+70.p)6
>Y5h#O):J:-n4p:3JS9xe*39%-)h-Iw*\h9[
ghcIXf9h5+=_eh$8%Yob8($$+he:FvT33jy
kGy5$#o):j:-N4P:/x)ze;4(i257$8
q
5&[(J74h>21W+)-W(E1:7xyIcS$\L
s5uW9Ey)$j'j3%2'$vH(q;J$=++p:fyt33HY
kjJ*74H>21w+)-w72/yp5h+:sb+5Bvi9! Tl
s5u#9Ey)$j'j3%2+NvT:[b:5Bru9! yl
s53(9Ey)$j'j3%2:,9;<w220!j43:j(==Uq
%2uh$)5I)/Lx'b#*0x0Am%#pH[Fv)0.p)6
>!9j-W72/YP5BOc9120!V3eI*(==5Q
y
a&Zt%#o):j:-%SP:/b:p=5H)(%i [
ghmUXf9h5+=x7h$8%Yob8($j+Iw' ET33hy
kGySH#o):j:-%SP:/xHz=ruW(257<8
q
5&[(J74h>21WJ%-W(E1:7$333$$\L
s53p9Ey)$j' X%2'$vH(q;:$B++>:vst33HY
kj)974H>21wj%-wj_/i$e+P#(UVt33JY
kGySi#o):j:-%Su:/xHzX-,#(257<8
q
5&[(J74h>21W3#/pw91-PxJp#2uS;.:Q
%2uv$)5I)/Ll863j:3JS9xe*c9 -sI-Ue*\h9[
ghm(Xf9h5+=r[G7I#5F\PUH0#hHI*Y7$<63SZ
aA$v+:3js9XE=+c T$X#4h'vs0$<63$z
0
N|\) 9eY)$J'F=Dh*7Jx(/1j;I5+c]_0
[$Vp:3JS9xe=+C v$)5I)/Lx'=#pH'ut)j<632Z
aA$vu:3js9XE=+c V$X#Ph$UV0e<632z
0
N|\) 9eY)$J'F=Dj77Jx(/1h;b;Im]_0
[$V3:3JS9xe=+C%h$)5I)/L>773xm[ t70.p)6
>Y)h#O):J:-,\Sc[Xf9h5+=f129!J+c[257>8
/):v2'$vH(qIZ.B3wj_$3$i+P#'*(==Yq
%nJS974h>21W3#/U3912)!u,w$*(==uQ
y
a&Zt%#o):j:-,\sC'x:zXj+M[hspJ*[Y
kjs(74H>21w3#/uC9Ey)$j'j3%2(!U+#s257i8
/z2/V$)5i)/lL86-u:/xJzH33(i257$8
q
5&[(J74h>21W3#/Uw91-PxJ3P(Jt(.:Q
%nJS;74h>21W3#/Uw912s!R,)$*(==5Q
y
a&Zt%#o):j:-,\sCsx:zXj+):fJ*i*[Y
kj+p74H>21w3#/uE9[ap7;XCu*e70.P)6
>Y0=#O):J:-,\ScSX>w%Z/.xX)Zb;U(I257I8
/z2vJ$)5i)/lL86-L:/xJze;PWi257$8
q
5&[(J74h>21W3#/3391-PxJIwI*)0.:Q
%2V)$)5I)/Ll86;p:3JS9xe*39%-PbRj>*\h([
ghP:Xf9h5+=r[Gs=#>J]627!R+32u(==uQ
%nJ+074h>21W3#/33912)!V+>2%(==5Q
y
a&Zt%#o):j:-,\sM:x:zXj+M/ y(<*[Y
kj+974H>21w3#/3>9Ey)$j'A'xHz<U43:257$8
/)i*2'$vH(qIZ.Jvw;R- /4<w>ef:0<5)*[*0
[O54e9eY)$J'F=D))7JW#EVhP$;)*[*0
L
F& 9XxF9H5+=R[gS<#+h/1:SJrip($\l
s54#9Ey)$j'f=d)074H>21wj%3w3evV7<-)*[j0
[$5+:3JS9xe=+Cu+$8%Yob8($=+4#U%jT33jy
kGy9=#o):j:-,\sMix:$=+H3u*+t33HY
6
9?80sW72/YP5% qUJ2P!J+([HY7$]tT6
>Y9b#O):J:-,\Sm2X>w%Z/.xX+Z$JUw:257>8
/z2j)$)5i)/lL86;H:/xHz>j4)2257$8
q
5&[(J74h>21W3#/I(91-PxJ3#( :).:Q
%2JS$)5I)/Ll86V+:3JS9xe2 'XjZI]+w'257$8
/)2v2'$vH(qIZ.Hjw72/yp5h+:[b+pX;39! Tl
s2H)2xF9H5+=R[g)X#+:[b:0X-L9! yl
[
,?+*72'$Vh(Qiz.h3W(E1:Pj-,#U$\L
s5HW9Ey)$j'f=ds77\/(9%-pB5+3*\H([
gd)2H2'$Vh(Qiz.h3W(9u-PE5j9! YL
[
,?+*72'$Vh(Qiz.h-W(E1:PjJ+3[*I [
gd)2F2'$Vh(Qiz.h-W(9u-Px3pw*\h9[
8
<?=2'$)5i)/lL86v3:/b:pX;J('1T6D8
/)$12'$vH(qIZ.H;w72/yp5hP:[b+5$]i9! yl
s5J39Ey)$j'f=dsS74H>21wdX#ih2%ySH<63$z
aA$Uu:3js9XE=+c/)$X#Ph$ J00.P)6
Z
[?#<2:3js9XE=+cvH$X++(/UH5XrH2Jz
a9i;w72/yp5% Qi 2:,9;<w227!rJ32 (==Uq
%nJt)74h>21W3#/439125!;lc:257$8
q
5&[(J74h>21W3#/4c91-PxJp)I1E).:Q
%2*+$)5I)/Ll86RU:3JS9xe=+CVh$<+l((FST33jy
kjT974H>21w3#/4C9Ey)$j' X 2*!UH)(/(==Yq
%nJt(74h>21W3#/4c912;!yUc$J(==uQ
y
a&Zt%#o):j:-,\spux:zXj+M[vHpB*[Y
kjT*74H>21w3#/4M9Ey)$j'A/xHzH3HEi257i8
/z2*e$)5i)/lL86r3:/xJzH;J)'257$8
q
5&[(J74h>21W3#/4>91-PxJ33:1Y*.:Q
%2H:$)5I)/Ll86RI:3JS9xe*(9 -)Iy,)*\h([
gd)S 2'$Vh(Qiz.<VW(9%-)j5l)*\h9[
8
<?=2'$)5i)/lL86r4:/b:pX3,Euj)6D8
/)s%2'$vH(qIZ.<rw72/yp5% QiU20!UPW[f(==Uq
%2H)$)5I)/Ll86R4:3JS9xe2 'XtZ$5U#*\h*[
gd)S/2'$Vh(Qiz.<RW(9 -sjRUe*\h9[
8
<?=2'$)5i)/lL86rH:/b:pX;u>[vs6D8
/)sv2'$vH(qIZ.<5w72/yp5% Qi/20!r4#'/(==Uq
%2HY$)5I)/Ll86Rh:YipV9c):'B:(x;U9! tL
s2HE$xF9H5+=R[g0$#+:'bs(>rL9! yl
[
,?+*72'$Vh(Qiz.<uW(E1:P=V3)2JI [
gheSXf9h5+=r[G0I#O):J:-/JWPE )sE-)*[*0
[$y,:3JS9xe=+CVt$8%Yob8($=++e[ tT33jy
kGy;X#o):j:-,\sp$x:$J+,C/*et33JY
6
9?80sW72/YP5% qIH2P!J+('V)0hRtT6
>Y;=#O):J:-,\SPSX33+DK!*XhZhu4)*\h([
gd)(%2'$Vh(Qiz.<yW(9 -;$-,e*\h9[
8
<?=2'$)5i)/lL86r,:/b:pX3i3sU+6D8
/)(U2'$vH(qIZ.<]w72/yp5% Qih2)!-i#[f(==Uq
%nJE)74h>21W3#/4#912;!]3>'H(==uQ
y
a&Zt%#o):j:-,\s)/xTz<r3Ws25p<*[Y
kGy;<#o):j:-,\s)/x:$<++)i1et33JY
6
9?80sW72/YP5% q2 2P!J+('Jh;E3tT6
>Y;$#O):J:-,\S)[Xf9h5+=r[G0I#IH'u:(I<63$Z
a9eUw72/yp5% Q2 2'$vH(q;:$=+J): Ht33HY
kje*74H>21w3#/H396L<yz#99%-7$-LW*\H([
gd)(F2'$Vh(Qiz.$3W(9%-7$VI3*\h([
8
<?=2'$)5i)/lL865u:/b:pX3iC$1V6D8
/W/12'$vH(qIZ.$-w72/yp5% Q2125!vLE2f(==Uq
%$1h$)5I)/Ll865U:YipV9c):SBt;j;U9! vL
s2J('xF9H5+=R[g9B#+:[b:;X-L9! yl
[
,?+*72'$Vh(Qiz.$;W(E1:P=Vl#2*I [
gj(UXf9h5+=r[G9j#O):J:-/JW#EHE;x])*[*0
[IJI:3JS9xe=+CJ)$8%Yob8($=+U>/1+T33jy
kGTp<#o):j:-,\s)ux:$=+up:UTt33JY
6
9?80sW72/YP5% q2/2(!ul3[F(=xRtT6
>tP$#O):J:-,\S):Xf9h5+=r[G9j#UHI1)7$<63$Z
a(XUw72/yp5% Q2/2'$vH(q;:$B+iE21Tt33JY
k*:*74H>21w3#/H>96L<yz#99v-)BjLE*\H*[
gdw/F2'$Vh(Qiz.$VW(9%-5h]l)*\h([
8
<?=2'$)5i)/lFS5492q[:$X++(/ Jp=r42Jz
a(=jw72/yp543=3Mi-#jw72/yp5hu::b)(<;J9! Tl
sUP39Ey)$j'7ulF>.E (9;Dj9G\ 9v-p<jL3*\H([
gdw[%2'$Vh(Qe)-)kt==12P7-xPSF))0.pw6
Z
[l
F##+B7;8s<w<*>'hm\q
56