* LVDS OUTPUT netlist for Cyclone 5

.SUBCKT LVDS_OUT din0 pina pinb vccn vcpad0 vcpad1 vcc
+  kick0 vod2 vod1 vod0 rlvdsoe

.PROT freelib
5a2Z[7-u#/js;B-i:'%ep$v,C'/25B]+):fJ5H#uC(1y)e-u>9%J;X5i#'%s$B-,(2/e5BvwC'f:9H]uC:xJ5ejH>(%J)[
8
yC9IPv9%F'k,2<9zw(6
-)$.% !M73H79/%910
<h#5oj72<9ZW(6
-Y$8%f'K,2<9ZW(6
-t$Gc/./X3m4g\:/Z
P*7'y0%r:%79VO/x:l
+]w;\. #=1w6mpH$X8
y3/x3<md1C+xPWy-w(6
Z
P7=#y%k[2<sG Qw.2p[
9pc9-A[79/%C8d$x8
y3uxP[.[;(9-a[.[;3Nd7W7jq
6[/2<S*$o[Xp[S*$o'gGHM#+y
\ +$+zk+c8D$+zk:/z
P7$#y<Bd7W79k<910
<=uWaM7U[Gs+:\0U$x8
y3sx>W%z/.X 2<9zw(6
Z
0
N|\) 9eA9hJp[Qiz.h-W(E1:Pj-jeSuI [
gd39eA9hJp[Qiz.h-W(9u-7$]3#*\h9[
8
<?=2'$)GH>/ /-,\s>[x:zXj+M/*J($*[Y
kGJ$)GH>/ /-,\s>[x:$$+,32%st33JY
6
9?80sWF=DY(x#+H/1:9x5Iw[$\L
s23:R[g9ijw(9j-p$vJ3*\H9[
8
<?=2'$,\s)2f2p!j+(i1+9BvTt6
>!)7% q2JE$x#4H/VY5h<632Z
0
N|\) 9eA9hJU[Qiz.=]W(E1:P=]+e'FI [
gdP9eA9hJU[Qiz.=]W(9V-sI;le*\h([
8
<?=2'$)GH>/ /-,\s>/x:zXj+M(*s(H*[Y
kGy$)GH>/ /-,\s>/x:$J+LCs*st33HY
6
9?80sW7KJSP=0'a[X:ZxJ+m(%Ss=*[y
kGT$)GH>/ /-/3w(9*-)J;,#*\H([
8
<?=2'$)GH>/%/-,\sC'x:zXjP(uh:5.:q
%nH2'S5I('3W3#/Uc9127!J3e/%(==RQ
y
a&Zt%#o%2/:5-E=+c%H$X++(/hV0B3H2Jz
aAe#o%2/:5-E=+c%H$X#LhsvJ7$<632z
0
N|\) 9eA9hJU[Qiz.b;W(E1:P>Vl('%I [
gd3/Xf[$V+c-Ll86-3:/XvZhy+c'257$8
q
5&[(J74/):1jX5% qU12P!J+((FjPh;tT6
>!7=#O%2/:5-e=+Cu:$x#,H(%:)j<632Z
0
N|\) 9eA9hJU[Qiz.b]W(E1:7x;I>[$\L
s2PC9Ea9Hju[qIZ.B]w(9 -pJvi3*\H0[
8
<?=2'$)GH>/%/-,\sCsx:zXj+Es1y5$*[Y
kGHS74/):1Jx5% Q'h2p7YXE/jJ90.P)6
Z
[?#<2:3>y)X-F=F/2p!j+([/)0e3Tt6
>!7h#O%2/:5-e*>9129!Rl)'%(==yQ
y
a&Zt%#o%2/:5-E*391-pXjuM/1:9.:q
%n +$)gh>/%/-/3W(9J-5<54#*\h([
8
<?=2'$)GH>/%/-,\s>'x:zXj+Wuv+)e*[Y
kGH974/):1Jx5% Q:%2p7UXMivs;0.P)6
Z
[?#<2:3>y)X-F=R[g)=#+h/1:(e]4Ei$\l
s2PW9Ea9Hju[qIZ.H3w(9 -5i]i>*\H9[
8
<?=2'$)GH>/%/-,\sp/x:zXj+p(/y0H*[Y
kGH*74/):1Jx5% Qi12p7-X>$hJt33HY
6
9?80sW7KJSPb0'F=DS*7Jx(/1t9>]+m]_0
[O3,:3>Y)x-f=r[G)>#+:'Bj*>Jl9! YL
[
,?+*72'S5I('3W3#/pw91-Px3U3/1v6d8
/z'12's5i('3w3#/PW9127!-P(/h(==rq
y
a&Zt%#o%2/:7-E=+cUT$X++(/%)9HvP2Jz
aAB3w7kjsp=0'f=d)(7jwEe%H*$Y)*[*0
L
F& 9XxF[$v+3-lL86;H:/b:p=j3p]_0
[O-U:3>Y)x3f=r[Gs$#+:[B:s<<63IZ
0
N|\) 9eA9hJp[Qiz.jyW(E1:Phy3)'FI [
gdcUXf[$V+3-Ll86;l:/XSZ>;hc(257$8
q
5&[(J74/):1hX5% qUF2P!J+($*v5>ytT6
>!5h#O%2/:7-e=+CuE$x#jH$Hj*><632Z
0
N|\) 9eA9hJp[Qiz.$3W(E1:7=upPS$\L
s2up9Ea9HjP[qIZ.$3w(9%-7=jLE*\H9[
8
<?=2'$)GH>/ /-/vw(e1:pBUi(2$\l
s2u)9Ea9HjP[q;s$X#3huvH9H<63$z
0
N|\) 9eA9hJp[Qiz.<]W(E1:7>uh)[$\L
s2uW9Ea9HjP[qIZ.<]w(9U-SJ-43*\H9[
8
<?=2'$)GH>/%/-,\s>ux:zXj+W2%s)<*[Y
kGJ*74/):1Jx5% Q:U2p73Xp//HS0.P)6
Z
[?#<2:3>y)X-F=R[g)e#+h/1:*=]L)i$\l
s2u#9Ea9Hju[qIZ.H]w(9 -p=3JW*\H9[
8
<?=2'$)GH>/ /-,\sp$x:zXjPCu1J7.:q
%nu:$)gh>/ /-,\SP$X:$b++3[*ET33hy
6
9?80sWF=DS755W(E1:5$-,):$\L
s2339IZ.H3')9125!5u#2/(==rq
y
a&Zt%#=+c/H-i#+h/1J0<;,C]_0
[O;U:r[G)=ej:/XjZ<R3#'257<8
q
5&[(J7% q: W*7Jx(/%Y($;j2jZ
aAJ;wf=ds75Yw(9%-9i53E*\H0[
8
<?=2'$)GH>/ /-,\sC$x:zXj+C/feSH*[Y
kG))74/):1Hx5% Q'*2p73XMi1H70.P)6
Z
[?#<2:3>y)X3F=R[gS<#+h/1:(JrPE:$\l
s;4:3>y)X3F=R[gS<#o%2/:7-E=+cUT$B+i#sfyt33JY
kG)974/):1Hx5% Quv2p75XE[hy;0.P)6
Z
[?#<2:3>y)X3F=R[g5$#+h/1:0=-+W:$\l
s23W9Ea9HjP[qIZ.B5w(9/-;<UH>*\H9[
8
<?=2'$)GH>/ /-,\sp/x:zXj+Eu*+0i*[Y
kG)*74/):1Hx5% Qi12p7YXM$v+(0.P)6
Z
[?#<2:R[g9i3w(e1:7B-,p'$\l
s23#9IZ.$UP:/xHzB-,p'257<8
q
5&[(J7% q2JS$x++('%Y7>utT6
>!)x#=+CJY)7JWcE%Y7>u)*[V0
L
F& 9Xx>57jX(/1)7BUu3]_0
[OVp:f%2P7VxP[HY90.pw6
Z
[?#<2:R[g9ivw(e1:7<-L)i$\l
s2iC9IZ.$Ui:/xHz<-L)i257<8
q
5&[(J7% q2HE$x++([J+*x3tT6
>!)j#=+CJv;7JWmE%tPER)*[J0
L
F& 9XxL865,(91-pX-+)2fe6D8
/z:/23#/H#/x:$=++([1Tt334Y
6
9?80sWF=DS555W(E1:5<y3c'$\L
s2ip9IZ.H-')9125!rLM'%(==rq
y
a&Zt%#=+c/)-i#+h/1J9=rLW]_0
[OVh:r[G)jej:/XjZ$34e$257<8
q
5&[(J7% q:%W(7Jx(/%Y0jyl2jZ
aAHUwf=ds55Uw(9%-9<;LE*\H0[
8
<?=2'$,\s>ulV$X++('j)5$]Tt6
>!)>#=+C/)->#+:'BYsb5,9! +L
[
,?+*723#/IcQH2P!J+c2/t;E*[y
kGs;7% Q:%w*7jwCejs(e])*[v0
L
F& 9XxF[$vJ(qEa9H-+%\lF39E=+cUH$X++(/ )9<jP2Jz
aA<jw7kjs(XEo%2/Jps9'7R0w3#/339125!;4>$%(==Uq
y
a&Zt%#o%2/:5-E=+c y$X++([1s7$vTt6
>!0=#O%2/:5-e=+C Y$x#pH//h9h<63IZ
0
N|\) 9eA9hu+=3>Y)bJ/6Qiz.h3W(E1:P=3h#2$\L
s24C9Ea9HU+=3>y)Bj/6qIZ.H3w(9*-p$],M*\H([
8
<?=2'$,\s)s 2p!j+3$%T;i*[Y
kG+S7% Q2hH$X#Ph$%T;i<63iz
0
N|\) 9iz.$y+:/B:P=Jl)$VI [
gdP:Xl865l(912s!5+>'u(==5Q
y
a&Zt%#o%2/:7-E=+c%s$X++('1V7e5Tt6
>!0<#O%2/:7-e=+C%S$x#UH/Hh;$<63IZ
0
N|\) 9eA9hu+=3>Y)bJ;TxLl86;U:/B:Px34(2HE6d8
/zij2's5iW/lF[$vu(%_'-,\sM'x:$B+4)[v)t33JY
6
9?80sW7KJS(xeO%2/jPY:2=r[Gsj#+H/1:7E3,m:$\L
s24W9Ea9HU+=3>y)Bj;tXlL86;3:/xHzX3+Ws257$8
q
5&[(J74/):*:-)gh>'1  %e=+CuS$x++(/ Y5byI2jZ
a0>#o%2/Tp54/):%:vDS'f=d))74/):*:-)GH>'1  %E=+cU)$H+L#/UHt33JY
kG+;74/):*:-)GH>'1  %E=+cUs$X#4h2 :7J<63$z
0
N|\) 9eA9hu+=3>Y)bJ;TxLl86Vp:/B:Px33eU1S6d8
/z212's5iW/lF[$vu(%_'-,\s>[x:$e+uC2%yt33JY
6
9?80sW7KJS(xeO%2/jPY:2=r[G5b#+H/1:7bRh#$$\L
s5P:3>y)ij'7kjs5Xd[ qIZ.B-w7kjs(XEo%2/Jpy:2=R[g)=#ih21s7J<63$z
a9B#o%2/Tp54/):%:vDS'f=dJ574/):*:-)GH>'1  %E=+cUs$H+,(:/(==Uq
%nJ)$)gh>$1W'S5Ic/P\J5% q'%2P7;x(2 h*0.pw6
Z
[?#<2:3>y)ij'7kjs5XGy=R[gSB#+h/1:7<]+#2$\l
s5i:3>y)ij'7kjs5XGy=R[gSB#o%2/Tp54/):%:[+EofBlL86;P::by*=YL9! Tl
s2Hp9Ea9HU+=3>y)Bj/6qIZ.J-w(9U-7e;HM*\H([
8
<?=2'$)GH>$1w's5iC/>P-)%k=R[gSB#+h/1:7iU,p$$\l
s5H:3>y)ij'7kjs5XGy=3Iu-,\sM'xF[$vJ(qEa9H-+%\lF39E=+cUH$H+J(ij)t33JY
kGy(74/):*:-)GH>'1a<54=<qIZ.J-w(9*-p=UHM*\H([
8
<?=2'$)GH>$1w's5iC/>P-,\sMux:zXj+3$ +7H*[Y
kGy*74/):*:-)GH>'1a<5% QuU2p75XW[h+t33JY
6
9?80sW7KJS(xeO%2/jPS9'F=D);7Jx(/1j7$RIm]_0
[O5,:3>Y)IJ'7KJS5xgY=r[GsE#+:[B)(xyh9! YL
[
,?+*72'S5Iw/Lf[$VU(K-W3#/3)91-PxJU3I1js.:Q
%n*:$)gh>$1W'S5Ic/>p-,\Sm2X:$b++eS*(==uQ
y
a&Zt%#o%2/Tp54/):%:[+E=+c/J$X++(/ y7H542Jz
a(=#o%2/Tp54/):%:[+E=+c/J$)GH>$1w's5iC/>P-,\sMuxyz<j,W'257>8
/W'xF[$vJ(qEa9H-+%\lL86vu:3>y)ij'7kjs5XGy=R[gSB#ihihV5e<63$z
aAi;w7kjs(XEo%2/Jps9'f=ds57jw3e e(>v)*[*0
L
F& 9XxF[$vJ(qEa9H-+%\lL86-u:/b:pX3H>2%)6D8
/W:xF[$vJ(qEa9H-+%\lL86-u:3>y)ij'7kjs5XGy=R[g)=#ih2%ypH<63$z
aAirw7kjs(XEo%2/Jps9'f=dJ57jw)ehs*>r)*[*0
L
F& 9XxF[$vJ(qEa9H-+%\lL86;4:/b:pX3ipijJ6D8
/W2xF[$vJ(qEa9H-+%\lL86;4:3>y)ij'7kjs5XGy=R[gSe#ih2vH;=<63$z
aAiUw7kjs(XEo%2/Jps9'f=d)07jw#ef:)J-)*[*0
L
F& 9XxF[$vJ(qEa9H-+%\lL86;i:/b:pX3iW$ i [
gje9eA9hu+=3>Y)bJ/6Qiz.jVW7KJS(xeO%2/jPS9'F=Dj57Vx#S*);0.pw6
>t;74/):*:-)gh>'1A<5% qU/2'S5Iw/Lf[$VU(K-W3#/3m9V-PbVj#*\h([
gde/Xf[$Vj(QeA9h-+%\Ll86;I:/X)ZER43$257I8
q
5&[(J74/):*:-)gh>'1A<54=<Q8z77Jx(/ :0=Jp2jZ
a*=#o%2/Tp54/):%:[+EofBl78=#o%2/Tp54/):%:[+E=+cU)$<+3(/ Vt33LY
kGV574/):*:-)GH>'1a<54=<q8Z77jwEevV7XU)*[*0
[Oy3:3>Y)IJ'7KJS5xgY=3iU-4\p:/XSZ>R+)(257I8
/E:xF[$vJ(qEa9H-+%\lF39E#+[xF[$vJ(qEa9H-+%\lF39E=+cUH$=+u3[ Tt33JY
kGV074/):*:-)GH>'1a<54=<q8Z77jwCe V)=U)*[*0
[Oyh:3>Y)IJ'7KJS5xgY=3iU-4\p:/XSZ>yUP:257I8
/zs*2's5iW/lF[$vu(k-w',z'!= 2p7;XC'1V50.PW6
>!*>#O%2/tP54/):%:[+eOFbL78=#+:UBt0>JU9! tL
sY,:3>y)ij'7kjs5XGy=3Iu-4\P:3>y)ij'7kjs5XGy=R[gSB#Hh'hy0J<63sz
a;X#o%2/Tp54/):%:[+EofBl78=#o%2/Tp54/):%:[+E=+c/J$H+,Ei*Jt33LY
kfH$)GH>$1w's5iC/>P-)%k=w[H$)GH>$1w's5iC/>P-)%k=R[gSB#uh/h)9$<63$z
aAe-w7kjs(XEo%2/Jps9'7R0wh#3w(9j-)XrL9! Tl
s2,M9Ea9HU+=3>y)Bj/6qEL/5C 39127!viE$/(==Uq
%nFS$)gh>$1W'S5Ic/>p-)%K=W[h$x#UH/uSs<<63$Z
aAerw7kjs(XEo%2/Jps9'7R0wh#3w(9U-)e-4#*\H([
gd#2Xf[$Vj(QeA9h-+%\Lf39e#+[X:$=+3(/*ST33jy
kGe(74/):*:-)GH>'1a<54=<q8Z77jw3e*e9>])*[*0
[O]l:3>Y)IJ'7KJS5xgY=3iU-4\p:/XhZI-h)[257I8
q
5&[(J74/):*:-)gh>'1A<54=<Qiz.=5W(E1:Pj]je[/I [
gd#(Xf[$Vj(QeA9h-+%\Lf39e=+C Y$x#hH[FYP=<63$Z
0
N|\) 9eA9hu+=3>Y)bJ;TxLl86;,:/B:Px-3mU$\L
s2P(/xF[$vJ(qEa9H-+OJ7w3#/3#9127!vJ('v(==5q
y
a&Zt%#o%2/Tp54/):%:vDS'f=d)(7jX(/1H0JrHW]_0
[O3+39eA9hu+=3>Y)bJ;TxLl86;j:/XtZbu+)S257I8
q
5&[(J74/):*:-)gh>'1  %e=+CuY$x++(/%j0E;42jZ
a7X-w7kjs(XEo%2/Jpy:2=R[gS$#o%2/Tp54/):%:vDS'f=d)(7vX>$ T;0.PW6
>!7x;W7KJS(xeO%2/jPY:2=r[Gs$#+:'B:)I3h9! tL
[
,?+*72'S5Iw/Lf[$VU(%_'-,\SmIX:ZxJ+3'J:*E*[y
k :)74/):*:-)GH>'1  %E=+cU+$)GH>$1w's5iC/p\j5% Quf2)!54)/v(==Uq
%n :074/):*:-)gh>'1  %e=+Cu+$x#jHIV)P=<63$Z
0
N|\) 9eA9hu+=3>Y)bJ/6Qel/5% q[*2P!J+(Uu)P$ytT6
>hP$#O%2/tP54/):%:[+eOFbLl863j:3>Y)IJ'7KJS5xgY=3iU-4\p:(B);j-I9! tL
s3+W9Ea9HU+=3>y)Bj/6qEL/5% Q[*2's5iW/lF[$vu(k-w',z'!= 27!;PW[*(==Uq
%[1v$)gh>$1W'S5Ic/>p-)%K=r[G7I#O%2/tP54/):%:[+eOFbL78=#pHU*h50.pw6
>hPE#O%2/tP54/):%:[+eOFbLl863j:3>Y)IJ'7KJS5xgY=3iU-4\p:2BjsIuh9! tL
s2P3/xF[$vJ(qEa9H-+%\lF39E=+c T$X#Ph'vT0$<632z
0
N|\) 9eA9hu+=3>Y)bJ/6Qel/5% q'u2P!J+([Vj0hytT6
>!7=3W7KJS(xeO%2/jPS9'7r0W3#/Um9129!]3PU257I8
q
5&[(J74/):*:-)gh>'1A<54=<Qiz.b]W(E1:P=y3m'/I [
gd3[%2'S5Iw/Lf[$VU(K-W',Z'F=Dj;7JW#E E*<;)*[*0
L
F& 9XxF[$vJ(qEa9H-+%\lF39E=+c%+$X++(/%s0BrH2Jz
aA=33:3>y)ij'7kjs5XGy=3Iu-,\sCix:$B+LW( Ht33JY
6
9?80sW7KJS(xeO%2/jPS9'F=Dj77Jx(/1hs$3lc]_0
[O3p>9eA9hu+=3>Y)bJ/6Qiz.b3W(9%-)=]+w*\h([
8
<?=2'$)GH>$1w's5iC/>P-)%k=R[gSJ#+h/1:7iYH3s$\l
s2P3ixF[$vJ(qEa9H-+%\lF39E=+cU)$X#Lh:*+;=<63$z
0
N|\) 9eA9hu+=3>Y)bJ/6Qel/5% q'*2P!J+('1h($;tT6
>h7$#O%2/tP54/):%:[+eOFbLl86-j:3>Y)IJ'7KJS5xgY=r[G5=#4H'%+9b<63$Z
aA=3J:3>y)ij'7kjs5XGy=3Iu-,\sC$x:$J+HC[%yt33JY
6
9?80sW7KJS(xeO%2/jPS9'7r0W3#/3>91-PxJpeU/:7.:Q
%[ v$)gh>$1W'S5Ic/>p-)%K=r[Gsh#O%2/tP54/):%:[+eOFbLl86;3:IBh0b]49! tL
s2P3(xF[$vJ(qEa9H-+%\lF39E=+cUs$X#Lhu :0B<63$z
0
N|\) 9eA9hu+=3>Y)bJ/6Qel/5% q'J2P!J+([Hj;x-tT6
>h5x#O%2/tP54/):%:[+eOFbLl86-h:3>Y)IJ'7KJS5xgY=3iU-,\Sc$X+ZbJ,)U257I8
/z[%H$)GH>$1w's5iC/>P-)%k=R[g5$#+:sbV9<;,9! Tl
[
,?+*72'S5Iw/Lf[$VU(K-W',Z'F=Dh07Jx(/1j;EJ3m]_0
[=-U:3>Y)IJ'7KJS5xgY=3iU-,\S3IXf[$Vj(QeA9h-+%\Lf39e=+C Y$<+j)/VhT33jy
kGH5J#o%2/Tp54/):%:[+EofBlL8634:/xVzXYJMu257i8
q
5&[(J74/):*:-)gh>'1A<54=<Qiz.=yW(E1:Pj5,eU$\L
s3u>9Ea9HU+=3>y)Bj/6qEL/5% Q[h2's5iW/lF[$vu(k-w',z'f=dH07rX#uhJt33JY
kGH5<#o%2/Tp54/):%:[+EofBlL863L:/xyz>YL3'257i8
q
5&[(J74/):*:-)gh>'1A<5% q:12P!J+(UHh(IVtT6
>!7b5W7KJS(xeO%2/jPS9'F=DSP7JWcE/)(=V)*[J0
L
F& 9XxF[$vJ(qEa9H-+OJ7w3#/u>91-pXjPW(vT).:q
%n j(74/):*:-)gh>'1  %e=+C%S$x#3H(F:P<<63$Z
0
N|\) 9eA9hu+=3>Y)bJ;TxLf39e=+C%t$x++(/ +0=]l2jZ
aA=-L:3>y)ij'7kjs5Xd[ qEL/5% Q'*2p7-XW$vJ00.PW6
Z
[?#<2:3>y)ij'7kjs5Xd[ qEL/5% Qu/2p!j+([*H*B-Tt6
>!7b]W7KJS(xeO%2/jPY:2=3iU-,\Sm:X:$>+pP$HYT33jy
6
9?80sW7KJS(xeO%2/jPY:2=3iU-,\ScUX:ZxJ+3:*S5$*[y
kGHSX#o%2/Tp54/):%:vDS'7R0w3#/uM9120!v+3u*(==Uq
y
a&Zt%#o%2/Tp54/):%:vDS'7R0w3#/u#91-pXjPW/js7.:q
%n )774/):*:-)gh>'1  %eOFbLl86-,:/XYZE5,)S257I8
q
5&[(J74/):*:-)gh>'1  %eOFbLl86-4:/B:Px-ImUFj6d8
/z[UJ$)GH>$1w's5iC/p\j54=<qIZ.Brw(9/-0H;Jp*\H([
8
<?=2'$)GH>$1w's5iC/p\j54=<qIZ.Jjw(e1:pH]3#/Ui [
gd3Uu2'S5Iw/Lf[$VU(%_'-)%K=r[Gsx#+:[Bj*jJI9! YL
[
,?+*72'S5Iw/Lf[$VU(%_'-)%K=r[G5h#+H/1:)>;jmS$\L
s2PM:xF[$vJ(qEa9H-+OJ7w',z'f=dJ)7jw3eUy5$v)*[j0
L
F& 9XxF[$vJC-lF[$v+)qIZ.i#+h/1J;H5,M]_0
[O33P9eA9huU[QeA9hJh=r[G(7JW>E1)(=R)*[J0
L
F& 9XxL86v3=2x:zXju)'vs9.:q
%n )97% q:uW97JWcEJj0h5)*[V0
L
F& 9XxF[$v+3-lL863,:/b:pB5+>:$\l
s2PM$xF[$v+3-lL863,:/xJzJvPMi257<8
q
5&[(J74/):1hX5% q'12P!J+c[*t5h*[y
k )*74/):1Hx5% Q'12's5i([3w3#/P#9%-9Jj4p*\H9[
gd3UF2'S5I([3W3#/U(9127!]p>[H(==RQ
y
a&Zt%#o%2/:7-E=+c%)$X++([h+SJ]Tt6
>!7hJW7KJSP=0'F=Djs7JW3EH+sj])*[V0
L
F& 9XxF[$vJC-lF[$v+)qIZ.>#+h/1J;XU4>]_0
[O3I39eA9huU[QeA9hJh=r[G*7JWmEHSsh-)*[J0
L
F& 9XxF[$vJ(qIZ.HYw(e1:p$rLW:ji [
gd3:%2'S5Iw/Ll86Vl:/XhZjyp>[257$8
q
5&[(J74/):*:-)gh>'1A<54 oQeO65\+:/B:Px3,3:%j6d8
/z[/)$)GH>$1w's5iC/>P-)\;=3Mi-#jw(9f-5er,p*\H([
8
<?=2'$)GH>$1w's5iC/>P-,\sCux:zXj+3s*V*$*[Y
kGH)H#o%2/Tp54/):%:[+E=+c%)$X#4h/UTSH<63$z
0
N|\) 9eA9hu+=3>Y)bJ/6Qel/5% q[u2P!J+(:/S7=*[y
kGH)<#o%2/Tp54/):%:[+EofBlL8633:/xHz=juM2257$8
q
5&[(J74/):*:-)gh>'1A<54=<Q8z57Jx(/ j;=-,2jZ
a7H5w7kjs(XEo%2/Jps9'7R0wh#-w7kjs(XEo%2/Jps9'7R0w3#/PM9/-;i3PW*\H([
gd3:*2'S5Iw/Lf[$VU(K-W',Z'!=%2P7-x3[%S)0.pw6
>h)>#O%2/tP54/):%:[+eOFbL78b#O%2/tP54/):%:[+e=+C%)$=+h(S257I8
/3:f2's5iW/lF[$vu(k-w',z'!=%2's5iW/lF[$vu(k-w3#/u39h-5>vi>*\H*[
gpP/Xf[$Vj(QeA9h-+%\Lf39e#+'Xf[$Vj(QeA9h-+%\Lf39e=+C )$b+lw$VET33jy
k +774/):*:-)GH>'1a<54=<q8Z574/):*:-)GH>'1a<54=<qIZ.BUw>e/Jp=;)*[*0
[=RU:3>Y)IJ'7KJS5xgY=3iU-4\U:3>Y)IJ'7KJS5xgY=3iU-,\Sc2XYZ$;h(2257>8
/z[v)$)GH>$1w's5iC/>P-)%k=w[J$X#PhufySH<632z
a7<vw7kjs(XEo%2/Jps9'7R0wh#-w7kjs(XEo%2/Jps9'7R0w3#/PM9 -pXri3*\H([
gpPIXf[$Vj(QeA9h-+%\Lf39e#+'Xf[$Vj(QeA9h-+%\Lf39e=+C )$=+I):V(==uQ
%[VY$)gh>$1W'S5Ic/>p-)%K=W[j$)gh>$1W'S5Ic/>p-)%K=r[G7j#pH/%Esh<63$Z
aA=rJ:3>y)ij'7kjs5XGy=3Iu-4\u:/xHz>rHpi257i8
/z[vV$)GH>$1w's5iC/>P-)%k=w[J$X#uh:/H7e<63$z
a7<]w7kjs(XEo%2/Jps9'7R0wh#-w7kjs(XEo%2/Jps9'7R0w3#/PM9U-5>rJp*\H([
gp)/Xf[$Vj(QeA9h-+%\Lf39e#+'Xf[$Vj(QeA9h-+%\Lf39e=+C )$>+j([VjT33jy
kGH9=#o%2/Tp54/):%:[+EofBl78B#+:ub:Se],9! Tl
s2P)'xF[$vJ(qEa9H-+%\lF39E#+'x:$J+,#$j(==Uq
%n Ys74/):*:-)gh>'1A<54=<Q8z57JW>E/j0I3)*[*0
[O3h>9eA9hu+=3>Y)bJ/6Qel/5c c9120!J,mSu(==uQ
%n Y074/):*:-)gh>'1A<54=<Q8z57JWmEJ:s=5)*[*0
[O3h)9eA9hu+=3>Y)bJ/6Qel/5c c9127!3l3(H(==uQ
%n Y(74/):*:-)gh>'1A<54=<Q8z57JW3E jPx;)*[*0
L
F& 9XxF[$vJ(qEa9H-+%\lL86-i:/b:pX3LWs%e6D8
/32h2's5iW/lF[$vu(k-w3#/u>9Ea9HU+=3>y)Bj/6qIZ.B3wpe s0Xr)*[*0
[=5,:3>Y)IJ'7KJS5xgY=r[G5h#O%2/tP54/):%:[+e=+C%)$<+pm$%ET33jy
k Tp74/):*:-)GH>'1a<5% Q'/2's5iW/lF[$vu(k-w',z'!=%2)!YuM$j(==Uq
%n t774/):*:-)gh>'1A<5% q'/2P7;x)$Jt*0.pw6
Z
[?#<2:3>y)ij'7kjs5XGy=R[g5$#+h/1:7B]3)s$\l
s3JC9Ea9HU+=3>y)Bj/6qIZ.B5w7kjs(XEo%2/Jps9'7R0wh#-wCeUJ)Jr)*[*0
[O3jm9eA9hu+=3>Y)bJ/6Qiz.b5W(9V-;>uj>*\h([
8
<?=2'$)GH>$1w's5iC/>P-,\sCix:zXj+32jH)$*[Y
k T)74/):*:-)GH>'1a<5% Q'v2's5iW/lF[$vu(k-w3#/u)9/-9BvJ3*\H([
gpwIXf[$Vj(QeA9h-+%\Ll86-4:3>Y)IJ'7KJS5xgY=3iU-4\U:'B))h5U9! tL
s3J)9Ea9HU+=3>y)Bj/6qIZ.Brw7kjs(XEo%2/Jps9'f=dJS7vX#:fs90.PW6
>!7IuW7KJS(xeO%2/jPS9'F=Dj07JW>EJE0Iy)*[*0
L
F& 9XxF[$vJ(qEa9H-+%\lL86-,:/b:pXr3Msvi [
gd3$H2'S5Iw/Lf[$VU(K-W3#/U#912)!]U3S/(==5Q
y
a&Zt%#o%2/Tp54/):%:[+E=+cU:$X++(//s)=rP2Jz
a7i]w7kjs(XEo%2/Jps9'f=d)p74/):*:-)GH>'1a<5% Q:12(!v+(s (==Uq
%n vP74/):*:-)gh>'1A<5% qU12P7;xPUFj50.p)6
Z
[?#<2:3>y)ij'7kjs5XGy=R[g5>#+h/1:)eUJ>[$\l
s2PE[xF[$vJ(qEa9H-+%\lL86-L:/xHze3PW[257$8
q
5&[(J74/):*:-,\SP:X:ZxJ+mI%:;j*[y
kGH*B#o%2/Tp5% Qi/2p7]X32v+S0.PW6
Z
[?#<2:3>y)ij'f=dy97jX(/1)*H5,>]_0
[O3lm9eA9hu+=r[G9$#+:(B)(=u39! tL
[
,?+*72'S5Iw/Lf[$VU(%_'-,\ScUX:ZxJ+c[*t;I*[y
k V)74/):*:-)GH>'1  %E=+c%)$)GH>$1w's5iC/p\j5% Q'/20!-+Wih(==Uq
%n v074/):*:-)gh>'1  %e=+C%)$x#IH'%:)<<63$Z
0
N|\) 9eA9hu+=3>Y)bJ;TxLl86-h:/B:Px33w$HS6d8
/z[hy$)GH>$1w's5iC/p\j5% Q'j2p75XMi%)t33JY
6
9?80sW7KJS(xeO%2/jPY:2=3[ -)kt==12P!J+('uh)>ytT6
>!7>uW7KJS(xeO%2/jPY:2=3[ -)kt==12P73xc2/S90.p)6
Z
[?#<2:3>y)ij'7kjs5Xd[ qIZ.JYw(e1:pijL3/hi [
gd3SH2'S5Iw/Lf[$VU(%_'-,\SmSX:$I++e[1vT33hy
6
9?80sW7KJS(xeO%2/jPY:2=r[Gs=#+H/1:;<V4>'$\L
s2PE(xF[$vJ(qEa9H-+OJ7w3#/33912S!YLM(/(==5q
y
a&Zt%#o%2/Tp5% Q( 2p!j+(2/:0=-Tt6
>!7EJW7KJS(xe=+CFh$x#hH:1+7b<632Z
0
N|\) 9eA9hu+=3>Y)bJ;TxLl86-j:/B:Px5,cIHS6d8
/z[fH$)GH>$1w's5iC/p\j5% Q'*2p73Xp2Us70.P)6
Z
[?#<2:3>y)ij'f=dep7jX(/1Vpe3,>]_0
[O3,c9eA9hu+=r[G;x#+::B)s<ul9! YL
[
,?+*72'S5Iw/Ll86]3:/B:Px5h(:JE6d8
/z[f)$)GH>$1w3#/,M9129!5+>2f(==5q
y
a&Zt%#o%2/Tp54 '=p+<549+q[:$X++(/ J*iU42Jz
aA=]i:3>y)ij'7==Zv<9'7o[w8X#+:'bV5>-L9! Tl
[
,?+*72'S5Iw/Ll86yh:/B:Px5jw/%Y6d8
/z[f+$)GH>$1w3#/L)9127!5J#s (==5q
y
a&Zt%#o%2/Tp5% Qiv2p!j+(uUs9XvTt6
>!7E5W7KJS(xe=+CV+$x#pH/Fh9><632Z
0
N|\) 9eA9hu+=3[;8Y;Y=3mz-#JWwEu)0x])*/VI [
gd3(*2'S5Iw/Lf81\;m\Lf>#e (912*!yUc:u(==yQ
y
a&Zt%#o%2/Tp5% Q[ H$X++(//:p=YTt6
>!7EyW7KJS(xe=+C h77JW3E/jsb3)*[J0
L
F& 9XxL86vi=2x:zXjuE:%e;.:q
%n E;7% q:/W97JWcEHS5E])*[V0
L
F& 9XxL86v4=2x:zXju>ifJ5.:q
%n%:P7% q:VW97JWcE/+;b-)*[V0
L
F& 9XxL86vi=$x:zXju)u%+).:q
%n%:77% q:/W(7JWcEJ)5<V)*[V0
L
F& 9XxF[$vJ(qIZ.<Yw(e1:p$r,Eivi [
gdc/%2'S5Iw/Ll86Rl:/XYZ<]lPI257$8
q
5&[(J7% q:VW(7Jx(/%+5x332jZ
aABj3:R[g)<EJ:/xJz<-+3u257<8
q
5&[(J7% q:/W*7Jx(/%Ys<RU2jZ
aABji:R[g)HEL:/xJz$;4p'257<8
q
5&[(J74/):*:-)gh>'1;654=<Qiz.bVW(E1:Ph3+w$$\L
s2u(ixF[$vJ(qEa9H-+']lF39E=+c%s$X#Ph/f)0H<632z
0
N|\) 9eA9hu+=3>Y)bJ$2Qiz.b;W(E1:P=VUP'HI [
gdc/J2'S5Iw/Lf[$VU(5$W3#/Um9125!;jc(/(==uQ
y
a&Zt%#o%2/Tp54/):%:G.E=+c%+$X++(/%H*<;L2Jz
a5XUw7kjs(XEo%2/Jp1*'f=dJ074/):*:-)GH>'1;65% Q'U20!juWs257i8
/z'1V$)GH>$1w's5iC/=i-,\sCix:$<+,E$j+t33JY
6
9?80sW7KJS(xeO+5[ 7.eOu=LzP7Jx(/1hsEJ,m]_0
[O-+#9eA9hu+=3[;8Y3t=3mz-#JW(9 -9h3l)*\h([
8
<?=2'$)GH>$1w3#/HC91-pXj3#i1T5.:q
%n%hP74/):*:-,\S)'X:$=+U)[J+T33hy
6
9?80sW7KJS(xe=+CJ)$x++(/uj)jRtT6
>!5=3W7KJS(xe=+CJ)$x#lH2 Y0=<63$Z
0
N|\) 9eA9hu+=3>Y)bJ$2Qiz.b5W(E1:P=V,):$\L
s-PC9Ea9HU+=3>y)Bj$2qIZ.B5w7kjs(XEo%2/Jp1*'f=dJ07vXWshs50.PW6
>!5=;W7KJS(xeO%2/jP1*'F=Dj97JWeE%jsI<63$Z
0
N|\) 9eA9hu+=3>Y)bJ$2Qiz.jJW(E1:PhyUeI*I [
gdc[/2'S5Iw/Lf[$VU(5$W3#/3(912s!V,eI/(==5Q
y
a&Zt%#o%2/Tp54/):%:G.E=+c%V$X++(//s*>]32Jz
aAB34:3>y)ij'7kjs5X[T=R[g5>#+:[be7Jri9! yl
[
,?+*72'S5Iw/Lf[$VU(5$W3#/U#91-PxJ4w/%v).:Q
%n%h974/):*:-)gh>'1;65% q'F2P7Rx(:Jh70.p)6
Z
[?#<2:3>y)ij'f=dVS7jX(/1)*J5u2Jz
aAB3J:3>y)ij'f=dVS7jw#ehVp>Y)*[*0
L
F& 9XxF[$vJ(qEa9H-+[\lL86-H:/b:pX3uM2fi [
gdc[H2'S5Iw/Lf[$VU(--W3#/U)9120!;,e$257I8
q
5&[(J74/):*:-)gh>'1/<5% q'V2P!J+([VS(hytT6
>j7E#O%2/tP54/):%:X+e=+C%+$)gh>$1W'S5Ic/3p-,\Sc2XSZh;,w2257I8
/z'%:$)GH>$1w's5iC/3P-,\sCix:$J+,CsjVt33JY
6
9?80sW7KJS(xe=+CFS$x++(/*:sjJI2jZ
aAB-P:3>y)ij'f=de)7jwWe1)SXv)*[j0
L
F& 9XxF[$vJ(qIZ.=j3:/b:pXY+p//e6D8
/z'%J$)GH>$1w3#/P(ux:$H+iC:UHt33HY
6
9?80sW7KJS(xeO%2/jP-9'7=PW'\*'+/X:ZxJ+32Vj*I*[y
kGJ5J#o%2/Tp54/):%:x+Eo+%lF>.E (9127!juW:257$8
q
5&[(J74/):*:-)gh>'1/<5% qUH2P!J+(2Hh5jutT6
>!5bVW7KJS(xeO%2/jP-9'F=D)*7JW)EHh5ju)*[J0
L
F& 9XxF[$vJ(qEa9H-+[\lL86-J:/b:pX53(s1H6D8
/z'%+$)GH>$1w's5iC/3P-,\sC$x:$=+HCu*Ht33HY
6
9?80sW7KJS(xeO%2/jP-9'F=D)77Jx(/ :9=3j2jZ
aAB-H:3>y)ij'7kjs5X0y=R[gS=#+::bJ5iUJ9! yl
[
,?+*72'S5Iw/Ll863+>91-PxJh3[Fv(.:Q
%n%j(74/):*:-,\S3//2P73xPIF:;0.p)6
Z
[?#<2:3>y)ij'f=dHpB#+h/1:;Jr,Cs$\l
s2uCsxF[$vJ(qIZ.=ju:/x)zi]J>(257$8
q
5&[(J74/):*:-)\$+%/p-)k ==12(!Rj#I/(=xRtT6
>!5b]W7KJS(xeO+5[ )+eOu=LzP7JWcE%h0>-)*[*0
L
F& 9XxF[$vJ(qIZ.=34:/b:pXvPEu1)6D8
/z'U:$)GH>$1w3#/P3ix:$H+J>:hJt33JY
6
9?80sW7KJS(xeO%2/jP19'F=Dj*7Jx(/1+0xJpw]_0
[O-339eA9hu+=3>Y)bJ$6Qiz.byW(9%-7<34e*\h9[
8
<?=2'$)GH>$1w3#/P32x:zXj+M$*V5i*[Y
kGJSB#o%2/Tp5% Q[ y$X#Lh'%:p=<63$z
0
N|\) 9eA9hu3[QeA9hJl=r[G7x#+H/1j;$y4m]_0
[O-3m9eA9hu3[QeA9hJl=r[G7x#+::Bt7x3p9! YL
[
,?+*723#/I)QH2P!J+cIF+Pb*[y
kGJSH#=+c/y->#+:'b+;<ju9! +l
[
,?+*72'S5Iw/Lf[$VU(5$W3#/3)91-PxJU('*)7.:Q
%n%)074/):*:-)gh>'1;65% qUJ2P73x>$ Ys0.pw6
Z
[?#<2:3>y)ij'7kjs5X[T=3Iu-,\sCix:zXj+CuUJ($*[Y
kGJS$#o%2/Tp54/):%:G.EofBlL86-4:/x)z<-PM2257i8
q
5&[(J74/):*:-)gh>'1;654=<Qiz.b]W(E1:P=Rh>:JI [
gdcU*2'S5Iw/Lf[$VU(5$W',Z'F=Dj;7JW)EJh5>;)*[*0
L
F& 9XxF[$vJ(qEa9H-+']lF39E=+c%)$X++(/ epJY,2Jz
aAB;L:3>y)ij'7kjs5X[T=3Iu-,\sCux:$e++)i st33JY
6
9?80sW7KJS(xeO%2/jP1*'F=D)07Jx(/1hsE;h>]_0
[O-3#9eA9hu+=3>Y)bJ$2Qiz.jRW(9F-5h3pc*\h([
8
<?=2'$)GH>$1w's5iC/=i-,\sM$x:zXj+3s%)S=*[Y
k%sp74/):*:-)GH>'1;65% Qu*2's5iW/lF[$vu(5$w3#/3)9/-SXvu)*\H([
gdc: 2'S5Iw/Lf[$VU(5$W3#/3w9129!V+(2 (==uQ
y
a&Zt%#o%2/Tp54/):%:G.EofBlL86-H:/b:pX3Lp[ i [
gdc:%2'S5Iw/Lf[$VU(5$W',Z'F=Dj97JWeEF)5j3)*[*0
L
F& 9XxF[$vJ(qEa9H-+']lL86-u:/b:pX33C:jH6D8
/z'/)$)GH>$1w's5iC/=i-,\sC'x:$J+HE2jHt33JY
6
9?80sW7KJS(xeO%2/jP1*'F=D)s7Jx(/1jPbuhc]_0
[O-I>9eA9hu+=3>Y)bJ$2Qiz.j;W(9 -PI]Ue*\h9[
8
<?=2'$)GH>$1w's5iC/=i-,\s>'x:zXj+3$*e0.:q
%'/+$)gh>$1W'S5Ic/=I-,\S>'Xf[$Vj(QeA9h-+']Ll86;3:IBvPhRp9! vL
s2u>2xF[$vJ(qEa9H-+']lL86vu:/x)zBU+>*\H([
8
<?=2'$)GH>$1w's5iC/=i-,\sM'x:zXj+3i%+0e*[Y
k%s(74/):*:-)GH>'1;65% Qu%2's5iW/lF[$vu(5$w3#/iC9/-9X-,3*\H([
gdc:H2'S5Iw/Lf[$VU(5$W3#/3c9125!-I#Su(==uQ
y
a&Zt%#o%2/Tp54/):%:G.EofBlL86;P:/b:pX3i>$/V6D8
/C:f2's5iW/lF[$vu(5$w',z'f=d)774/):*:-)GH>'1;65% Qu%20!jP>'h(==Uq
%n%+P74/):*:-)gh>'1;654=<Qiz.j3W(9 -7>;p9! tL
[
,?+*72'S5Iw/Lf[$VU(5$W',Z'F=D)57Jx(/1h($y3)]_0
[bRp:3>Y)IJ'7KJS5x[t=3iU-,\Sm'Xf[$Vj(QeA9h-+']Lf39e=+Cuh$h+hP'/hT33jy
kGJ0B#o%2/Tp54/):%:G.EofBlL86;u:/xTzJ-49! Tl
[
,?+*72'S5Iw/Lf[$VU(5$W',Z'F=D))7Jx(/1h)I3jw]_0
[O-4m9eA9hu+=3>Y)bJ$2Qel/5% qU/2P75x)21+;0.pw6
Z
[?#<2:3>y)ij'7kjs5X[T=3Iu-,\sC$x:zXj+3:jT(<*[Y
k%+)74/):*:-)GH>'1;654=<qIZ.BUw7kjs(XEo%2/Jp1*'7R0w3#/u)9v-7$U+M*\H([
gdcIV2'S5Iw/Lf[$VU(5$W',Z'F=Dj(7JWcE/j(ju)*[*0
L
F& 9XxF[$vJ(qEa9H-+']lL86vP:/b:pX3PC$hT6D8
/Cij2's5iW/lF[$vu(5$w3#/i39Ea9HU+=3>y)Bj$2qIZ.B-w>ejJ;<5)*[*0
[O-4w9eA9hu+=3>Y)bJ$2Qiz.h3W(9J-9h]p3*\h([
8
<?=2'$)GH>$1w's5iC/=i-)%k=R[g7J#+h/1:)i5u(:$\l
s2upsxF[$vJ(qEa9H-+']lF39E=+c )$X#Ph:%e0i<632z
0
N|\) 9eA9hu+=3>Y)bJ$2Qiz.hJW(E1:Pj3j)2VI [
gUP(Xf[$Vj(QeA9h-+']Ll86V+:3>Y)IJ'7KJS5x[t=r[Gsx#jH2/+P$<63$Z
aAB5+:3>y)ij'7kjs5X[T=R[g)X#+:'bH;J539! yl
[
,?+*72'S5Iw/Lf[$VU(5$W3#/U391-PxJp)$ t).:Q
%'Jh$)gh>$1W'S5Ic/=I-,\Sc[Xf[$Vj(QeA9h-+']Lf39e=+C%t$<+U>'HST33jy
kGJ9B#o%2/Tp54/):%:G.E=+c%H$X#4h'j:($<63$z
0
N|\) 9eA9hu+=3>Y)bJ$2Qiz.bVW(E1:P=R3#:JI [
gU)UXf[$Vj(QeA9h-+']Ll86-I:3>Y)IJ'7KJS5x[t=r[G5j#4H[*ts$<63$Z
a5$vw7kjs(XEo%2/Jp1*'f=dJ)74/):*:-)GH>'1;65% Q' 20!3uMuj(==Uq
%n%Y074/):*:-)gh>'1;65% q'/2P7VxcI*YT33jy
6
9?80sW7KJS(xeO%2/jP1*'7r0W3#/p)91-PxJI(' Y7.:Q
%n%Y974/):*:-)gh>'1;654=<Qiz.=5W(9J-*IR+w*\h([
8
<?=2'$)GH>$1w's5iC/=i-)%k=R[gSJ#+h/1:7$jP#[$\l
s-HW9Ea9HU+=3>y)Bj$2qEL/5% QuU2's5iW/lF[$vu(5$w',z'f=d))7vXp/U+S0.PW6
>!5$yW7KJS(xeO%2/jP1*'7r0W3#/3m912(!3,>2 (==uQ
y
a&Zt%#o%2/Tp54/):%:G.EofBl78B#+h/1H5>;3C]_0
[O-h#9eA9hu+=3>Y)bJ$2Qel/5c c9127!R3cI257I8
/C$12's5iW/lF[$vu(5$w',z'!=%2's5iW/lF[$vu(5$w',z'f=dHS7rXp:UH;0.PW6
>!5I3W7KJS(xeO%2/jP1*'7r0WH#-W(9u-9$uUc*\h([
gdc$%2'S5Iw/Lf[$VU(5$W',Z'!=%2P73xc(/j(0.pw6
>j(j#O%2/tP54/):%:g.eOFbL78b#O%2/tP54/):%:g.eOFbLl8633:(Bh)E5U9! tL
s2uW:xF[$vJ(qEa9H-+']lF39E#+'x:$=++M//(==Uq
%'*+$)gh>$1W'S5Ic/=I-)%K=W[j$)gh>$1W'S5Ic/=I-,\Sc[XhZx]+>I257I8
/C$j2's5iW/lF[$vu(5$w',z'!=%2's5iW/lF[$vu(5$w',z'f=dHS7UX)s%+70.PW6
>j(I#O%2/tP54/):%:g.eOFbL78b#O%2/tP54/):%:g.eOFbLl86-h:SBY5jyU9! vL
s-JE9Ea9HU+=3>y)Bj$2qEL/5C C9Ea9HU+=3>y)Bj$2qEL/5% Q'*20!r,Cs*(==Yq
%'*E$)gh>$1W'S5Ic/=I-)%K=W[j$)gh>$1W'S5Ic/=I-,\Sc2XhZERpe(257I8
/Cs12's5iW/lF[$vu(5$w',z'!=%2's5iW/lF[$vu(5$w3#/up9 -p>v+W*\H([
gdcS 2'S5Iw/Lf[$VU(5$W',Z'!=%2P7Vx>(uS50.pw6
>!5>-W7KJS(xeO%2/jP1*'7r0WH#-W(9 -s$uhw*\h([
gdcSu2'S5Iw/Lf[$VU(5$W',Z'!=%2P73xc[%h;0.pw6
>!5>VW7KJS(xeO%2/jP1*'7r0WH#-W(9 -sjulP*\h([
gdcSV2'S5Iw/Lf[$VU(5$W',Z'!=%2P7;x)(/+*0.pw6
>!5>5W7KJS(xeO%2/jP1*'7r0WH#-W(9u-s=Rpc*\h([
gdcS*2'S5Iw/Lf[$VU(5$W',Z'!=%2P7VxcSuv*0.pw6
>!5>yW7KJS(xeO%2/jP1*'7r0WH#-W(9/-s>yU#*\h([
gdcSF2'S5Iw/Lf[$VU(5$W',Z'!=%2P73xm2%(==uQ
%'F:$)gh>$1W'S5Ic/=I-)%K=W[j$)gh>$1W'S5Ic/=I-,\ScUXhZ$uI)$257I8
/C( 2's5iW/lF[$vu(5$w',z'!=%2's5iW/lF[$vu(5$w3#/u>9h-S$-LM*\H*[
gU#'Xf[$Vj(QeA9h-+']Lf39e#+'Xf[$Vj(QeA9h-+']Ll86-4::BE9<y49! tL
s2u#uxF[$vJ(qEa9H-+']lF39E#+'x:$H+,Ci Ht33JY
k%e)74/):*:-)GH>'1;654=<q8Z574/):*:-)GH>'1;654=<qIZ.=;w3e1:0H3)*[*0
[O-,P9eA9hu+=3>Y)bJ$2Qel/5c c9127!Rj#[J(==uQ
%'FY$)gh>$1W'S5Ic/=I-)%K=W[j$)gh>$1W'S5Ic/=I-)%K=r[G7j#pH/Jh5h<63$Z
aAB]J:3>y)ij'7kjs5X[T=3Iu-4\u:/xHzJ-L3(257i8
q
5&[(J74/):*:-)gh>'1;654=<Qiz.=RW(E1:Pb5,w2$\L
s-,E9Ea9HU+=3>y)Bj$2qEL/5% Q[v2's5iW/lF[$vu(5$w',z'f=dH97rXW$/s;0.PW6
>!5E]W7KJS(xeO%2/jP1*'7r0W3#/pP912*!yjc:257I8
q
5&[(J74/):*:-)gh>'1;654=<Qiz.=yW(E1:Pj5Ic2uI [
g3(/Xf[$Vj(QeA9h-+']Lf39e=+C v$)gh>$1W'S5Ic/=I-)%K=r[G7<#4HSHYs$<63$Z
aAJjP:3>y)ij'7kjs5X[T=3Iu-,\s3sx:$>++)sfVt33JY
6
9?80sW7KJS(xeO%2/jP1*'7r0WH#3W(E1:7xu+m'$\L
s23('xF[$vJ(qEa9H-+']lF39E#+[x:$=++#uf)t33JY
kG)pJ#o%2/Tp54/):%:G.EofBl78=#+:ibHS$-P9! Tl
s23(:xF[$vJ(qEa9H-+']lF39E#+[x:$J+JCiUVt33JY
kG)p<#o%2/Tp54/):%:G.EofBl78=#+:[bs*=Uu9! Tl
s23(2xF[$vJ(qEa9H-+']lF39E#+[x:$=+P#sf(==Uq
%nu:(74/):*:-)gh>'1;654=<Q8z77JW3E%)P$;)*[*0
[O;+e9eA9hu+=3>Y)bJ$2Qel/5c 39125!34PSu(==uQ
%nu:;74/):*:-)gh>'1;654=<Q8z77JWmEJS;xR)*[*0
[O;p(9eA9hu+=3>Y)bJ$2Qel/5c 3912s!V3PS%(==uQ
%nuh774/):*:-)gh>'1;654=<Q8z77JW3EH+(b-)*[*0
[O;pc9eA9hu+=3>Y)bJ$2Qel/5c 39127!-pc[u(==uQ
%nuhs74/):*:-)gh>'1;654=<Q8z77JW3EVS5$y)*[*0
[O;p>9eA9hu+=3>Y)bJ$2Qel/5c 39127!Jj)2u(==uQ
%U +$)gh>$1W'S5Ic/=I-)%K=W[h$)gh>$1W'S5Ic/=I-)%K=r[Gsb#pH: vPI<63$Z
aS=5w7kjs(XEo%2/Jp1*'7R0wh#3w7kjs(XEo%2/Jp1*'7R0w3#/339 -;<ruM*\H([
gdm[*2'S5Iw/Lf[$VU(5$W',Z'!= 2P7Vxc'1hT33jy
kUH*74/):*:-)GH>'1;654=<q8Z774/):*:-)GH>'1;65% Qu%27!rJ)uU(==Uq
%U E$)gh>$1W'S5Ic/=I-)%K=W[h$)gh>$1W'S5Ic/=I-,\S>'X+Zj5,(U257>8
/zu%:$)GH>$1w's5iC/=i-)%k=w[H$X#3h2%J;J<63$z
aAJ-P:3>y)ij'7kjs5X[T=3Iu-4\P:/x)zHv+>'257i8
/zu%J$)GH>$1w's5iC/=i-)%k=w[H$X#uh'/y5e<63$z
0
N|\) 9eA9hu+=3>Y)bJf6Qiz.jVW(E1:P=R4(2/I [
gdm'u2'S5Iw/Lf[$VU(--W3#/3>912)!]I)/H(==uQ
y
a&Zt%#o%2/Tp54/):%:x+E=+cU)$X++(/ T;<v,2Jz
aSBvw7kjs(XEo%2/Jp-9'f=d)S74/):*:-)GH>'1/<5% Qu/2)!YH)i/(==Uq
%nuj074/):*:-)gh>'1/<5% qUu2P7yxm/Jj50.pw6
Z
[?#<2:3>y)ij'7kjs5X0y=R[g)B#+h/1:7>]Hp$$\l
s;u)9Ea9HU+=3>y)BjF6qIZ.H-w7kjs(XEo%2/Jp-9'f=d)S75X(s1V00.PE6
>!sbuW7KJS(xeO%2/jP-9'F=DS57JWcE%Ss$y)*[*0
L
F& 9XxF[$vJ(qEa9H-+[\lL86;u:/b:pX3JWi e6D8
/M'h2's5iW/lF[$vu(--w3#/3C9Ea9HU+=3>y)BjF6qIZ.H-w>e*J7X3)*[*0
[O;U#9eA9hu+=3>Y)bJf6Qiz.j-W(9u-s>5+e*\h([
8
<?=2'$)GH>$1w's5iC/3P-)%k=R[gSH#+h/1:7i33>i$\l
s23M/xF[$vJ(qEa9H-+[\lF39E=+cUs$X#JhihH;e<63$z
0
N|\) 9eA9hu+=3>Y)bJf6Qiz.bVW(E1:P=VUc'HI [
gdmU 2'S5Iw/Lf[$VU(--W3#/U>9125!5p3/V(==uQ
y
a&Zt%#o%2/Tp54/):%:x+E=+c%)$X++(/ +*H;,2Jz
aSJ-w7kjs(XEo%2/Jp-9'f=dJS74/):*:-)GH>'1/<5% Q'v2)!],3:%(==Uq
%Uu)$)gh>$1W'S5Ic/3p-,\ScUXf[$Vj(QeA9h-+[\Ll86-I:IBh;E]U9! tL
s23M:xF[$vJ(qEa9H-+[\lL86-3:/xszJj3p[257i8
q
5&[(J74/):*:-)gh>'1/<54=<Qiz.buW(E1:P=VlcUVI [
gdmUV2'S5Iw/Lf[$VU(--W',Z'F=Dj(7JW3EFS7=u)*[*0
L
F& 9XxF[$vJ(qEa9H-+[\lL86vP:/b:pX3P)s1H6D8
/zuUy$)GH>$1w's5iC/3P-,\s>[x:$$+,C$ Tt33JY
6
9?80sW7KJS(xeO%2/jP1*'F=D))7Jx(/1h0h;,2jZ
aSJUw7kjs(XEo%2/Jp1*'f=d))74/):*:-)GH>'1;65% QuU2)!UipsU(==Uq
%Uuv$)gh>$1W'S5Ic/=I-,\Sm:Xf[$Vj(QeA9h-+']Ll86-U::BE5E]U9! tL
s23M(xF[$vJ(qEa9H-+']lL86;i:/x+zX34C2257i8
q
5&[(J74/):*:-)gh>'1;654=<Qiz.=uW(E1:Pj;332%I [
g3>/Xf[$Vj(QeA9h-+']Lf39e=+C t$)gh>$1W'S5Ic/=I-)%K=W[h$>+l)'FvT33jy
kUs774/):*:-)GH>'1;654=<qIZ.=Uw7kjs(XEo%2/Jp1*'7R0wh#3w)evT(Hr)*[*0
[jVU:3>Y)IJ'7KJS5x[t=3iU-,\S3$Xf[$Vj(QeA9h-+']Lf39e#+[XhZh5+c(257I8
/M:U2's5iW/lF[$vu(5$w',z'f=dH(74/):*:-)GH>'1;654=<q8Z773X((hV00.PW6
>!shVW7KJS(xeO%2/jP1*'7r0W3#/pw9127!-4)$u(==5Q
y
a&Zt%#o%2/Tp54/):%:x+EofBlL86-3:/b:pX34)2 H6D8
/zu/+$)GH>$1w's5iC/3P-)%k=R[g5J#+:2b:5BUi9! Tl
[
,?+*72'S5Iw/Lf[$VU(--W',Z'F=Dj07Jx(/1j)E5Im]_0
[O;I)9eA9hu+=3>Y)bJf6Qel/5% q'V2P7;x(2 +*0.pw6
Z
[?#<2:3>y)ij'7kjs5X0y=3Iu-,\sC(x:zXj+3iUH(>*[Y
kG))i#o%2/Tp54/):%:x+EofBlL86-,:/xyz>33#s257i8
q
5&[(J74/):*:-)gh>'1/<54=<Qiz.bVW(E1:P<;3P'FI [
gdm:H2'S5Iw/Lf[$VU(--W',Z'F=Dj)7JW3E/)s>5)*[J0
L
F& 9XxF[$vJ(qEa9H-+[\lL86;J:/b:pX33Wi/e6D8
/zu/e$)GH>$1w's5iC/3P-,\sM$x:$<+Lp'j+t33JY
6
9?80sW7KJS(xeO%2/jP-9'F=D)97Jx(/1j0h;,w]_0
[jR+:3>Y)IJ'7KJS5x0Y=r[Gs$#O%2/tP54/):%:X+e=+Cut$h+43[FST33jy
kG)0=#o%2/Tp54/):%:x+E=+cUy$X#3h/U+SH<63$z
0
N|\) 9eA9hu+=3>Y)bJf6Qiz.jRW(E1:P=V+cI I [
gdmI%2'S5Iw/Lf[$VU(--W3#/3P912;!VpcI*(==uQ
y
a&Zt%#o%2/Tp54/):%:x+E=+cUe$X++(/%)7$U42Jz
aS<;w7kjs(XEo%2/Jp-9'f=d);74/):*:-)GH>'1/<5% Quv2)!5PCi*(==Uq
%nu+)74/):*:-)gh>'1/<5% qUF2P73x>2HE00.p)6
Z
[?#<2:3>y)ij'7kjs5X0y=3Iu-,\sM/x:zXj+>ijs(.:q
%nu+074/):*:-)gh>'1/<54=<Qiz.jJW(9 -5$;U)*\h9[
8
<?=2'$)GH>$1w's5iC/=P-,\sM(x:zXj+C'1)*i*[Y
kG)0$#o%2/Tp54/):%:G+E=+cUe$X#PhuvJ9B<632z
0
N|\) 9eA9hu+=3>Y)bJ$6Qiz.j5W(E1:Pb-l((*I [
gdmI*2'S5Iw/Lf[$VU(5-W3#/3)912s!R4w:F(==uQ
y
a&Zt%#o%2/Tp54/):%:G+E=+cUT$X++(/ )*=vu2Jz
aS<Yw7kjs(XEo%2/Jp19'f=d)(74/):*:-)GH>'1;<5% Quj2)!;4)$U(==Uq
%nu+;74/):*:-)gh>'1;<5% qU*2P7Rx)U*hT33jy
6
9?80sW7KJS(xeO%2/jP19'7r0W3#/Um91-PxJpw'/Y(.:Q
%nuYP74/):*:-)gh>'1;<54=<Qiz.b;W(9*-0<Vpm*\h([
8
<?=2'$)GH>$1w's5iC/=P-)%k=R[g5<#+h/1:5Xr3Ws$\l
s23)[xF[$vJ(qEa9H-+'\lF39E=+c%+$X#uh(/H7e<63$z
0
N|\) 9eA9hu+=3>Y)bJ$6Qiz.b;W(E1:P=Rj#:VI [
gdm2%2'S5Iw/Lf[$VU(5-W3#/Um912)!;I#:V(==uQ
y
a&Zt%#o%2/Tp54/):%:G+E=+cU)$X++(/ e*H-P2Jz
aAJ53:3>y)ij'7kjs5X[y=R[gSJ#+:[bH(J-49! yl
[
,?+*72'S5Iw/Lf[$VU(5-W3#/Ic91-PxJp#$HY).:Q
%nuY)74/):*:-)gh>'1;<5% q:%2P7;xm'1ET33jy
6
9?80sW7KJS(xeO%2/jP19'F=D)57Jx(/1h(jype]_0
[j54:3>Y)IJ'7KJS5x[Y=r[Gsb#O%2/tP54/):%:g+e=+C/j$h+jeIuET33jy
kG)9$#o%2/Tp54/):%:G+E=+cUJ$X#3hu e*e<63$z
0
N|\) 9eA9hu+=3>Y)bJ$6Qel/5% qU%2P!J+([Hj;>VtT6
>!s$uW7KJS(xeO%2/jP19'7r0W3#/3c912*!RIcI%(==uQ
y
a&Zt%#o%2/Tp54/):%:G+EofBlL86;i:/b:pX3HC'/e6D8
/zujV$)GH>$1w's5iC/=P-)%k=R[gSH#+:2b)0X3P9! Tl
[
,?+*72'S5Iw/Lf[$VU(5-W',Z'F=D)s7Jx(/1h0h-3e]_0
[j5,:3>Y)IJ'7KJS5x[Y=3iU-,\SmUXf[$Vj(QeA9h-+'\Lf39e=+CuS$<+Uw2J+T33jy
kG)(X#o%2/Tp54/):%:G+EofBlL86;3:/x+zJYL>[257i8
q
5&[(J74/):*:-)gh>'1;<54=<Qiz.b5W(E1:P=]hw:FI [
gdm$ 2'S5Iw/Lf[$VU(5-W',Z'F=Dj97JW#E/))=;)*[*0
L
F& 9XxF[$vJ(qEa9H-+'\lL86-i:/b:pX34Mu*)6D8
/M$%2's5iW/lF[$vu(5-w3#/u>9Ea9HU+=3>y)Bj$6qIZ.B;wpe s(><63$z
aAJU3:3>y)ij'7kjs5X[y=R[g5H#+::bH9X]H9! Tl
[
,?+*72'S5Iw/Lf[$VU(5-W',Z'F=Dj(7Jx(/1hs>3hm]_0
[juI:3>Y)IJ'7KJS5x[Y=3iU-,\Sc$Xf[$Vj(QeA9h-+'\Lf39e=+C%Y$h+je( )T33jy
kG)(<#o%2/Tp54/):%:G+EofBlL86-J:/xJz<3uC2257i8
q
5&[(J74/):*:-)gh>'1;<5% q'J2P!J+([ EsEutT6
>!sI5W7KJS(xeO%2/jP19'F=Dj97JWPEuE7$])*[*0
L
F& 9XxF[$vJ(qEa9H-+'\lF39E=+c )$X++(/Ue*>j42Jz
aAJUJ:3>y)ij'7kjs5X[y=3Iu-,\s3ux:$=+P($ Ht33HY
6
9?80sW7KJS(xeO%2/jP19'F=D)P7Jx(/1SPbVI)]_0
[O;je9eA9hu+=3>Y)bJ$6Qiz.jJW(9u-7b;,c*\h9[
8
<?=2'$)GH>$1w's5iC/=P-)%k=R[g7>#+h/1:SevLM]_0
[O;j#9eA9hu+=3>Y)bJ$6Qel/5% q[H2P7]xw2HE(0.pw6
Z
[?#<2:3>y)ij'7kjs5X[y=3Iu-,\s32x:zXj+>/*+p<*[Y
kG)*X#o%2/Tp54/):%:G+EofBlL863H:/xTz>-L>s257i8
q
5&[(J74/):*:-)gh>'1;<54=<Qiz.=RW(E1:PjVp('FI [
g3e[Xf[$Vj(QeA9h-+'\Lf39e=+C +$)gh>$1W'S5Ic/=p-)%K=r[G7>#4H(/S90.pw6
>)*b#O%2/tP54/):%:g+eOFbLl8634:3>Y)IJ'7KJS5x[Y=3iU-,\S32X+Z>Rj):257I8
/zuh)$)GH>$1w's5iC/=P-)%k=R[g7<#+:sbs*$<63$z
0
N|\) 9iz.h5')91-Px-4cI%j6d8
/zuhs$,\s>2ly$X#uhi%+5B<63iz
0
N|\) 9iz.hu')91-Px-h>2 I [
gdmSV23#/IwQJ2P7-x):JhT334y
6
9?80sWF=DS95uW(E1:5<uj3$$\L
s23E2xL86vH=$x:$B+4W$ Tt334Y
6
9?80sWF=DS(5uW(E1:5$]3m($\L
s23E$xL86vJ=$x:$B+H#uUet334Y
6
9?80sWF=DS(5yW(E1:5<3IP:$\L
s23EsxL86vJ=sx:$B+43:vst334Y
6
9?80sW7KJS(j0'7KJSP>e=+CF2P!J+cSFv0=*[y
kG)*e#o%2/TS-Eo%2/:*5% Q(x:$H++C(j+t33HY
6
9?80sW2Y2M6)0W(E :9<]j2jZ
aAJ]+:]6(\.4F:/xezi-J#i257<8
/M( 268<!2332's5iW'3w's5i(2lL86Uw3efV*er)*[*0
[O;,c9$3Tr*O[912(!3hm: (==RQ
%nuEs7*590$fX7JW>E%S5=5)*[J0
[O;,>9$3Tr*O[9127!yjw$/(==VQ
%nuE07*590$fX7JWeE%v)bR)*[*0
[O;,)9$3Tr*O[9120!R+(:F(==uQ
%nuE(7*590$fX7JWwE%Y)<V)*[*0
[O;,e9$3Tr*O[912(!5l)$*(==uQ
%nuE;7*590$fX7JWmE h*$5)*[*0
[OV+(9$3Tr*O[9120!uI#[257I8
/z:1H$.')r]E/$X#Jh:v)9H<63$z
aAHju:]6(\.4F:/xszH53M:257i8
/z:1)$.')r]E/$X#Ph/vJ0H<63:z
a)Xvw2y2m6)0w7kjs(B0'7kjsp$E=+ch27!j33u257$8
/>/v268<!2332's5iW'3w's5i(2lL86Uw)e y(=;)*[*0
[hJh:]6(\.4f:3>Y)I-f=3>Y)x5'F=Dv$=+U3I )T33jy
k/:(7*590$Fx74/):*Jx54/):1y-,\sE9h-5$-P)*\H([
gI(SXI:0$t7-Xf[$Vjc-Lf[$V+)Qiz.>#pH[F)5=<63$Z
a)X]w2y2m6)0w7kjs(B0'7kjsp$E=+ch27!3,($/(==Uq
%: :$.')R]e/$)gh>$%/-)gh>/JW3#/l:[B)7E]I9! tL
svP39$3tR*o[9Ea9HUu[qEa9HjH=R[g*73X>/1+*0.PW6
>S7b#t;*4I'-#O%2/t5-eO%2/:95% qSXtZ<;p3U257$8
/>[U268<!2332's5iW'3w's5i(2lL86Yw3e/:SX3)*[*0
[h3I:]6(\.4f:3>Y)I-f=3>Y)x5'F=Dv$=+ImUujT33jy
k/H07*590$Fx74/):*Jx54/):1y-,\sE9 -)J;3C*\H([
gI32XI:0$t7-Xf[$Vjc-Lf[$V+)Qiz.>#pH:/vP><63$Z
a)=Uw2y2m6)0w7kjs(B0'7kjsp$E=+ch27!;,p2*(==Uq
%: v$.')R]e/$)gh>$%/-)gh>/JW3#/l:[BS)xu)*[*0
[h3,:]6(\.4f:3>Y)I-f=3>Y)x5'F=Dv$=+peIH)T33jy
k/Jp7*590$Fx74/):*Jx54/):1y-,\sE9 -)B3+M*\H([
gIc[XI:0$t7-Xf[$Vjc-Lf[$V+)Qiz.>#pH[F+9<<63$Z
aAH-u:]6(\.4F:/xHz=Y+ps257i8
/>'U268<!2332's5iW'3w's5i(2lL86Yw3e eSB3)*[*0
[OVU>9$3Tr*O[9127!Jh(I/(==uQ