* LVDS OUTPUT LOAD netlist for Cyclone 5

.SUBCKT LVDS_OUTPUT_LOAD pina pinb vccn vcpad0 vcpad1 vcc

.PROT freelib
5a2Z[7-u#/js;B-i:'%ep$v,C'/25B]+):fJ5H#uC(1y)e-u>9%J;X5i#'%s$B-,(2/e5BvwC'f:9H]uC:xJ5ejH>(%J)[
8
y39p78X#y<Bx:l
+-wf\pu3-[/.9-u/7jq
6UXI3#cv Y82<SgW(6
-S$8D[ 9-U/7JQ
6IX3m4g\:\0U$x8
y)96Lx1G\:\0u$X8
yW96L<yzV99-u/7jq
6SX3<MD1(+Xp/9#+y
\f2:+t;_[)2<9zw(6
-hP7'Y0%Rj%79K<910
L
+3P:\>a879/%=d7W7jq
6[%2<SgW6K>GHM#+y
\ )$+GT'%12<sGT'% !.4tw(6
-h)79/25Ph$+g/25Pja6cv:/Z
P7<#y<B[ghm#y<Bx:l
+3H:\0u.4tw6B02p[
9pw9;dJ9g\ /Xp/9#+y
\ V$/t2<k,'779k<910
L
[
,?+*72'S5I([3W3#/Ic91-PxJ3c$Hvs.:Q
%n 2'S5I([3W3#/Ic912s!3h#UF(==5Q
y
a&Zt%#o%2/:7-E=+c/H$X++(/U:(BUH2Jz
aAB#o%2/:7-E=+c/H$X#Hh( y5H<63$z
0
N|\) 9iz.$u+:/B:Px5+):*h6d8
/zuxL865J(9129!jH>$ (==5q
y
a&Zt%#=+cjy;7jX(/1+p<5u>]_0
[OVWF=DY9E#+:IB:0$-I9! YL
[
,?+*72'S5I('3W3#/p#91-PxJp#/Hj;.:Q
%nV2'S5I('3W3#/p#9120!;jmSH(==uQ
y
a&Zt%#o%2/:7-E=+c/:$X++(/Ue(HUi2Jz
aA$#o%2/:7-E=+c/:$X#3hs%V(H<632z
0
N|\) 9eA9hJp[Q;h$x++(/uE5h;p2jZ
aAi#o%2/:7-E*3912(!v3M(f(==Uq
y
a&Zt%#o%2/:5-E=+c%J$X++([1)*X-Tt6
>!*74/):1jX5% q'%2P73x(UH:50.pP6
Z
[?#<2:3>y)X-F=R[g5=#+h/1:*>ru32$\l
s2,:3>y)X-F=R[g5=#+:sbV0B3H9! yl
[
,?+*72'S5I('3W3#/Um91-PxJl>S1j5.:Q
%n :$)gh>/%/-,\ScUX:$>+Ie/%jT33hy
6
9?80sW7KJSPb0'F=D)P7Jx(/1E;bJIm]_0
[O3p:3>Y)x-f=r[Gsx#+:(BE5xV39! YL
[
,?+*72'S5I('3W3#/U#91-Px3+m:/h6d8
/z[%2's5i('3w3#/u#9127!j3>: (==rq
y
a&Zt%#o%2/:5-E=+c%V$X++(/hVp$-H2Jz
aA=;w7kjspB0'f=dJ*7jwEeh:9B5)*[j0
L
F& 9XxF[$v+C-l>)7jX(/1H)Jr,3]_0
[O3I:3>Y)x-f=f/2P75xPSJj50.pe6
Z
[?#<2:3>y)X-F=F 2p!j+('U:pX5Tt6
>!7<#O%2/:5-e*39129!-4)IF(==uQ
y
a&Zt%#o%2/:5-E=+c/J$X++(/*)0<v,2Jz
aA=5w7kjspB0'f=ds57jwWeU+0H])*[j0
L
F& 9XxF[$v+C-lL86vP:/b:pXU,#ih+6D8
/z[*2's5i('3w3#/i39127!-J#:/(==5q
y
a&Zt%#o%2/:5-E=+cv:$X++(/ve)$ri2Jz
aA=Yw7kjspB0'f=d+p7jwCe/T*B<632z
0
N|\) 9eA9hJU[Qiz.hyW(E1:PI5l#/uI [
gd3(Xf[$V+c-Ll86Vl:/XjZbyl(S257$8
q
5&[(J74/):1jX5% q[*2P!J+3' :P>*[y
kGJp74/):1Jx5% Q[*2p73XC[1:*0.Pp6
Z
[?#<2:3>y)X3F=R[gSi#+h/1:5J5i>[$\l
s2u39Ea9HjP[qIZ.JUw(9h-5=YHE*\H([
8
<?=2'$)GH>/ /-,\sM2x:zXjP(uvi [
gdc'Xf[$V+3-Ll86;h:/XhZx;49! +L
[
,?+*72'S5I([3W3#/3e91-PxJIeUJj;.:Q
%n%)$)gh>/ /-,\SmSX:$h+lm2%ET33hy
6
9?80sW7KJSP=0'F=D);7Jx(/1t(>-le]_0
[O-I:3>Y)x3f=r[GsE#+:$Bt*byl9! YL
[
,?+*72'S5I([3W3#/h391-Px3pw[Vv6d8
/z'v2's5i([3w3#/H39125!3P(sh(==5q
y
a&Zt%#o%2/:7-E*>91-pXjuW:1y6D8
/z'j2's5i([3wdH#+:ub)0=5i9! Tl
[
,?+*72'S5I([3W3#/4#91-Px3lw2Jh6d8
/z'*2's5i([3w3#/4#912S!;3Ci (==5q
y
a&Zt%#o%2/:5-E=+c/)$X++(/*y5Hv42Jz
aABYw7kjspB0'f=dsS7jw3ev:)=;)*[j0
L
F& 9XxF[$v+C-lL86v,:/b:pXYP#sj+6D8
/z'f2's5i('3w3#/i#9127!jP3$*(==5q
y
a&Zt%#o%2/:7-E=+cvT$X++([%)pB3Tt6
>!sx#O%2/:7-e=+CVt$x#UH/ h(E<632Z
0
N|\) 9iz.h3')91-Px-hc(JS6d8
/zu 23#/i3qj2p7-X)'fy)0.Pp6
Z
[?#<2:R[g)=EJ:/b:pBr4M(%i [
gdm'Xl86Vp=$X:$b+4PUFjT334y
6
9?80sWF=DS75yW(E1:5$uhm$$\L
s23M9IZ.H3'E9125!5J)uh(==rq
y
a&Zt%#o%2/:7-E=+c%T$X++(/%:;e;i2Jz
aAJvw7kjsp=0'f=dJ(7jw3eU+p=3)*[j0
L
F& 9XxF[$v+3-lL86;4:/b:pXU3p[hs6D8
/MixF[$v+3-lL86;4:3>y)X3F=R[gSi#uh:fV;$<63$z
aAJ5w7kjsp=0'f=d)07jw)ehH*$])*[j0
L
F& 9XxF[$v+3-lL86-H:/b:pXrPC/*s6D8
/zu*2's5i([3w3#/u)912)!]4W2/(==5q
y
a&Zt%#o%2/:7-E=+cv:$X++(/h)(<rJ2Jz
aAJYw7kjsp=0'f=d+p7jwEeUT0<U)*[j0
L
F& 9XxL865J391-pX3uC(vJ6D8
/zuf23#/HW[x:$=+uC(vJt334Y
6
9?80sWF=DY9h#+H/1j5$3lw]_0
[OV+:r[G9$VW(9%-5$3lw*\h0[
8
<?=2'$/-w(e1:pJ3uW' i [
gd>[X>57JW>EVh*$5)*[*0
L
F& 9XxL865J>91-pX34Csj+6D8
/z:%23#/HW:x:$=+4Csj+t334Y
6
9?80sWF=DY*E#+H/1h9<y+3]_0
[OV3:r[G9>]W(9u-5IJ,P*\h9[
8
<?=2'$,\s)(12p!j+C/jy;e*[Y
kGs)7% Q2f:$X#Ph/1Hpi<63iz
0
N|\) 9iz.h-')91-Px-4eU%j6d8
/z:v23#/iCqj2p7-XpsUJ50.Pp6
Z
[?#<2:R[g)JEJ:/b:pB5Pps*i [
gd>2Xl86V3=$X:$b+h3IHtT334y
6
9?80sWF=DS55uW(E1:5$R3eS$\L
s2iW9IZ.H-'W9125!54Msh(==rq
y
a&Zt%#=+c/)->#+h/1J9J-H#]_0
[OVl:r[G)jel:/XjZ$;U)(257<8
q
5&[(J7% q:%W*7Jx(/%Y)I],2jZ
aAH]wf=ds55Yw(9%-9HU,#*\H0[
8
<?=2'$)GH>$1w's5iC/>P-)%k=R[gS=#+h/1:7J54([$\l
s24(9Ea9HU+=3>y)Bj/6qEL/5% Qu 2p7-XMi/T50.PW6
Z
[?#<2:3>y)X-F=R[g7$#+h/1HpH3H>]_0
[ORp:3>Y)x-f=r[G7$#+:[B:)=5I9! +L
[
,?+*72'S5Iw/Lf[$VU(K-W3#/I391-PxJp32FY6d8
/zi%2's5iW/lF[$vu(k-w3#/i3912(!jH#(U(==Uq
y
a&Zt%#=+cjV77jX(/ T5i]J2Jz
aA<;wf=dy*=#+:[bT5i]J9! +l
[
,?+*723#/he/X:ZxJp(SJt0.:Q
%nVS$,\S)S12P7;x)//js0.p)6
Z
[?#<2:3>y)X3F=R[g5H#+h/1Jp>3,)]_0
[OR4:3>Y)x3f=r[G5h#+:'B:*=]h9! +L
[
,?+*72'S5Iw/Lf[$VU(%_'-,\Sm'X:ZxJ+3I1Y*E*[y
kG+974/):*:-)GH>'1  %E=+cUJ$X#uhijH0J<63$z
0
N|\) 9eA9hu+=3>Y)bJ;TxLl86;3:/B:Px3,3(uS6d8
/zi*2's5iW/lF[$vu(%_'-,\sMux:$=++3/*Vt33HY
6
9?80sW7KJS(xeO%2/jPY:2=r[Gsh#+H/1:7$-Ue:$\L
srL:3>y)ij'7kjs5Xd[ qIZ.Jvw7kjs(XEo%2/Jpy:2=R[gSJ#ihsf:S=<63$z
aA<]w7kjs(XEo%2/Jpy:2=R[gSH#+:iby7X339! Tl
[
,?+*72'S5Iw/Lf[$VU(%_'-,\S>[X:ZxJ+3UH)Ph*[y
kGyp74/):*:-)GH>'1  %E=+c/H$X#,h'%y5$<63$z
0
N|\) 9eA9hu+=3>Y)bJ;TxLl86-U:/B:Px3UP2Ft6d8
/)[xF[$vJ(qEa9H-+OJ7w3#/uC9Ea9HU+=3>y)Bj;tXlL86vP::bypH339! Tl
s5u:3>y)ij'7kjs5Xd[ qIZ.B-w7kjs(XEo%2/Jpy:2=R[gSH#ih(1s)0.PW6
>!9j#O%2/tP54/):%:Vds'F=Dj57JWmE1Y7=y)*[*0
L
F& 9XxF[$vJ(qEa9H-+%\lL86;u:/b:pX34#/fy6D8
/):xF[$vJ(qEa9H-+%\lL86;u:3>y)ij'7kjs5XGy=3Iu-,\sM[xsz$YPEs257i8
/z2v2's5iW/lF[$vu(k-w3#/3C912S!3,M2U(==Uq
y
a&Zt%#o%2/Tp54/):%:[+EofBlL86;u:/b:pX3JW(vT6D8
/)2xF[$vJ(qEa9H-+%\lF39E=+cUJ$)GH>$1w's5iC/>P-)%k=R[gS=#ih$1+9J<63$z
aA$Uw7kjs(XEo%2/Jps9'7R0w3#/3C912(!jPW2U(==Uq
y
a&Zt%#o%2/Tp54/):%:[+E=+cU)$X++(/ T7<3i2Jz
aA$Yw7kjs(XEo%2/Jps9'f=d)S7jw)e*H*<<63$z
0
N|\) 9eA9hu+=3>Y)bJ/6Qiz.j]W(E1:Pb3hP:uI [
gd)(Xf[$Vj(QeA9h-+%\Ll86;,:/XhZju+e2257$8
q
5&[(J74/):*:-)gh>'1A<5% qUJ2P!J+(' +Pb;tT6
>!(x#O%2/tP54/):%:[+e=+CuY$x#UH/Hv(0.pw6
Z
[?#<2:3>y)ij'7kjs5XGy=R[g)B#+h/1:7$3i)i$\l
sUP:3>y)ij'7kjs5XGy=R[g)B#o%2/Tp54/):%:[+E=+cU)$$+4((*Jt33LY
k*J$)GH>$1w's5iC/>P-,\s>'xF[$vJ(qEa9H-+%\lL86;u::b+*>-,9! Tl
s2JM9Ea9HU+=3>y)Bj/6qIZ.H-w(9 -7eUL>*\H([
8
<?=2'$)GH>$1w's5iC/>P-,\sC'x:zXj+32/y5J*[Y
k*s$)GH>$1w's5iC/>P-,\sC'xF[$vJ(qEa9H-+%\lL86vP::by5$ji9! Tl
s2Jp9Ea9HU+=3>y)Bj/6qIZ.B-w(9j-*HYLp*\H([
8
<?=2'$)GH>$1w's5iC/>P-,\sMix:zXj+3:v+9B*[Y
k*y$)GH>$1w's5iC/>P-,\sMixF[$vJ(qEa9H-+%\lL86;,::by0=]P9! Tl
s2JW9Ea9HU+=3>y)Bj/6qIZ.Jrw(9f-;Xv3C*\H([
8
<?=2'$)GH>$1w's5iC/>P-,\sM:x:zXj+3:*T7.:q
%$H2'S5Iw/Lf[$VU(K-W3#/3>9eA9hu+=3>Y)bJ/6Qiz.b-W>EFv(j])*[*0
[I]W7KJS(xeO%2/jPS9'F=D))74/):*:-)gh>'1A<5% qUu20!JU>$F(==uQ
%nH:$)gh>$1W'S5Ic/>p-,\Sm:X:$j+,PI tT33jy
6
9?80sW7KJS(xeO%2/jPS9'7r0WH#3W(E1:7xRp([$\L
sYP:3>y)ij'7kjs5XGy=3Iu-4\P:3>y)ij'7kjs5XGy=R[gSJ#4hu1:7><63sz
aA>-w7kjs(XEo%2/Jps9'7R0wh#3w(9h-0>3+W*\H([
gdeUXf[$Vj(QeA9h-+%\Lf39e#+[X:$h+lP/JET33jy
khs$)GH>$1w's5iC/>P-)%k=w[H$)GH>$1w's5iC/>P-)%k=R[gS=#Ph' H7i<63$z
aA>rw7kjs(XEo%2/Jps9'7R0wh#3w(9%-7>vPW*\H([
gde2Xf[$Vj(QeA9h-+%\Lf39e#+[X:$h+le'VST33jy
kGV(74/):*:-)GH>'1a<54=<q8Z77jwMe%Jp>-)*[*0
[Oyl:3>Y)IJ'7KJS5xgY=3iU-4\p:/X)ZIRl('257I8
/E(xF[$vJ(qEa9H-+%\lF39E#+[xF[$vJ(qEa9H-+%\lL86;u:2bJ*$r39! Vl
s]+:3>y)ij'7kjs5XGy=3Iu-4\P:3>y)ij'7kjs5XGy=R[g)B#ih(h+(B<63sz
a;=#o%2/Tp54/):%:[+EofBl78=#o%2/Tp54/):%:[+EofBlL86;u:'b:*J5H9! Tl
s2,C9Ea9HU+=3>y)Bj/6qEL/5C 39129!v+ps257i8
/z(U2's5iW/lF[$vu(k-w',z'!= 2p73X>:hT)0.PW6
>!;h#O%2/tP54/):%:[+eOFbL78=#+:'B:sh;49! tL
s2,p9Ea9HU+=3>y)Bj/6qEL/5C 3912S!v,Cif(==Uq
%nFY$)gh>$1W'S5Ic/>p-)%K=W[h$x#pHU1:(h<63$Z
aAeUw7kjs(XEo%2/Jps9'7R0wh#3w(9 -(e5L#*\H([
gd#SXf[$Vj(QeA9h-+%\Lf39e#+[X:$=+jc2JhT33jy
6
9?80sW7KJS(xeO%2/jPS9'7r0W3#/p)91-PxJ3#$Hh).:Q
%nFE$)gh>$1W'S5Ic/>p-)%K=r[G7$#+:2Bh;$Jp9! tL
[
,?+*72'S5Iw/Lf[$VU(%_'-,\Sm(X:ZxJ+cUu)6d8
/z[1:$)GH>$1w's5iC/p\j5% Quf2p73X>$1J00.P)6
Z
[?#<2:3>y)ij'7kjs5Xd[ qIZ.JUw(e1:p=r3p2*i [
gd3/ 2'S5Iw/Lf[$VU(%_'-,\Sm$X:$I+Uw/JvT33jy
6
9?80sW7KJS(xeO%2/jPY:2=r[Gs$#+H/1:5bR,mI$\L
s3+C9Ea9HU+=3>y)Bj;tXlL86;H:3>y)ij'7kjs5Xd[ qIZ.JUw>e/T7i])*[*0
[O3+m9eA9hu+=3>Y)bJ;TxLl86;h:/XjZxVj32257I8
q
5&[(J74/):*:-)gh>'1  %e=+Cu+$x++(/ j9xy,2jZ
a7Xvw7kjs(XEo%2/Jpy:2=R[gS<#o%2/Tp54/):%:vDS'f=d);7vX)ij:00.PW6
>!7xRW7KJS(xeO%2/jPY:2=r[Gs<#+:$B+0jJp9! tL
[
,?+*72'S5Iw/Lf[$VU(K-W',Z'F=Dh(7Jx(/1)sjJhe]_0
[=Jh:3>Y)IJ'7KJS5xgY=3iU-,\S3$Xf[$Vj(QeA9h-+%\Lf39e#+[XEZj]3c:257I8
/3/*2's5iW/lF[$vu(k-w',z'f=dH(74/):*:-)GH>'1a<54=<q8Z773XM[*H(0.PW6
>hP>#O%2/tP54/):%:[+eOFbLl863j:3>Y)IJ'7KJS5xgY=3iU-4\p:[B)(=-)*[*0
[=J,:3>Y)IJ'7KJS5xgY=3iU-,\S3$Xf[$Vj(QeA9h-+%\Lf39e#+[XYZb;jw2257I8
/z[ :$)GH>$1w's5iC/>P-)%k=R[g7i#+:[bJ0irH9! yl
[
,?+*72'S5Iw/Lf[$VU(K-W',Z'F=Djs7Jx(/1h0bRIe]_0
[O3p39eA9hu+=3>Y)bJ/6Qel/5% q'u2P75x#UV)T33jy
6
9?80sW7KJS(xeO%2/jPS9'7r0W3#/U#91-PxJpeUuj).:Q
%n h574/):*:-)gh>'1A<54=<Qiz.b]W(9F-7Ey4m*\h([
8
<?=2'$)GH>$1w's5iC/>P-)%k=R[g5<#+h/1:5Hrup2$\l
s2P3uxF[$vJ(qEa9H-+%\lF39E=+c%+$X#uhs*e7=<63$z
0
N|\) 9eA9hu+=3>Y)bJ/6Qiz.b3W(E1:P=;h3S%I [
gd3[/2'S5Iw/Lf[$VU(K-W3#/U39125!Vp#/*(==uQ
y
a&Zt%#o%2/Tp54/):%:[+EofBlL86;3:/b:pX3JE2 V6D8
/z[ +$)GH>$1w's5iC/>P-)%k=R[gSJ#+:sbs(<]P9! Tl
[
,?+*72'S5Iw/Lf[$VU(K-W',Z'F=Dj(7Jx(/1jP=uhm]_0
[=3h:3>Y)IJ'7KJS5xgY=3iU-,\Sc$Xf[$Vj(QeA9h-+%\Ll86-p:IBj5<5U9! tL
s2P3$xF[$vJ(qEa9H-+%\lF39E=+c%T$X#3h2%H5$<63$z
0
N|\) 9eA9hu+=3>Y)bJ/6Qel/5% qU/2P!J+([H))x3tT6
>h7>#O%2/tP54/):%:[+eOFbLl86;I:3>Y)IJ'7KJS5xgY=3iU-,\SmUX+Z=RU#I257I8
/z[ e$)GH>$1w's5iC/>P-)%k=R[gSH#+:sb)7Xru9! Tl
[
,?+*72'S5Iw/Lf[$VU(K-W',Z'F=Dj97Jx(/1h*b]+c]_0
[=-+:3>Y)IJ'7KJS5xgY=3iU-,\Sc2Xf[$Vj(QeA9h-+%\Lf39e=+C%t$<+U((J)T33jy
kGH5=#o%2/Tp54/):%:[+EofBlL86-H:/xVz>54M(257i8
q
5&[(J74/):*:-)gh>'1A<54=<Qiz.=RW(E1:Pb],(UuI [
gpc'Xf[$Vj(QeA9h-+%\Lf39e=+C +$)gh>$1W'S5Ic/>p-)%K=r[G7$#4H$J:0=<63$Z
aA=-3:3>y)ij'7kjs5XGy=3Iu-,\s3ix:$>++E$U)t33JY
6
9?80sW7KJS(xeO%2/jPS9'7r0W3#/pe91-PxJ3)(H)6d8
/3'/2's5iW/lF[$vu(k-w',z'f=dH*74/):*:-)GH>'1a<54=<qIZ.=rwpef)*B<63$z
aA=-4:3>y)ij'7kjs5XGy=3Iu-,\s3sx:$$+LEs Jt33JY
6
9?80sW7KJS(xeO%2/jPS9'F=DSP7Jx(/1)*=uj>]_0
[O3U)9eA9hu+=3>Y)bJ/6Qiz.hJW(9%-)jup>*\h9[
8
<?=2'$)GH>$1w's5iC/p\j5% Q'/2p!j+([*e0ivTt6
>!7buW7KJS(xeO%2/jPY:2=r[G5h#+:UBE;xJ49! tL
[
,?+*72'S5Iw/Lf[$VU(%_'-)%K=r[G5I#+H/1:7<Rp#S$\L
s2PCsxF[$vJ(qEa9H-+OJ7w',z'f=dJ(7jwCe*T0Br)*[*0
L
F& 9XxF[$vJ(qEa9H-+OJ7w',z'f=d))7jX(/1H(=YuC]_0
[O3U#9eA9hu+=3>Y)bJ;TxLf39e=+CuS$x#lH[Vt*$<63$Z
0
N|\) 9eA9hu+=3>Y)bJ;TxLf39e=+C%)$x++(/ S(h-h2jZ
aA=;+:3>y)ij'7kjs5Xd[ qEL/5% Q'U2p7rX>/ )(0.PW6
Z
[?#<2:3>y)ij'7kjs5Xd[ qEL/5% Q'f2p!j+([*:9H3Tt6
>!7j3W7KJS(xeO%2/jPY:2=3iU-,\Sc(X:$$+,)(JvT33jy
6
9?80sW7KJS(xeO%2/jPY:2=3iU-,\ScIX:ZxJ+c:u);b*[y
kGHSB#o%2/Tp54/):%:vDS'7R0w3#/up912)!riM$v(==Uq
y
a&Zt%#o%2/Tp54/):%:vDS'7R0w3#/3(91-pXji#uf:S.:q
%n )s74/):*:-)gh>'1  %eOFbLl86;+:/XhZby3(:257$8
q
5&[(J74/):*:-)gh>'1  %eOFbLl86-I:/B:PxVlm$uv6d8
/z[Us$)GH>$1w's5iC/p\j54=<qIZ.Bvw(9 -S$-H>*\H9[
8
<?=2'$)GH>$%/-)GH>/jw3#/J:/b:pB]i)(Ui [
gd3UV2'S5Iw'3W'S5I(2Ll86uW(9/-PjupP*\h9[
8
<?=2'$,\s>uly$X++('jJ0H5Tt6
>!7j5WF=DSs55W(9%-9bRI)*\h0[
8
<?=2'$)GH>/ /-,\s3(x:zXju)//s6D8
/z[UT$)GH>/ /-,\s3(x:$B+3>[U+t334Y
6
9?80sW7KJSP=0'F=DjP7Jx(/%h(I-I2jZ
a7JYw7kjsp=0'f=dJp74/):1Hx5% Q[f25!53(iv(==5q
%n );74/):1hX5% q'12P73x#[/h*0.pP6
Z
[?#<2:3>y)X3F=R[g5J#+h/1H*<;3#]_0
[O3I(9eA9hJp[Qiz.b;W(9 -*<;3#*\h0[
8
<?=2'$)GH>$%/-)GH>/jw3#/L:/b:pB]+Wi/i [
gd3: 2'S5Iw'3W'S5I(2Ll86yW(9u-*h;Ic*\h9[
8
<?=2'$)GH>$1w3#/iE91-pXjHps*s9.:q
%n S574/):*:-,\S>SX:$=+3e[/hT33hy
6
9?80sW7KJS(xeO%2/jPS9'7=PW'\*'+/X:ZxJ+3( S5b*[y
kGH)J#o%2/Tp54/):%:[+Eo+%lF>.E (912;!-,p(v(==Uq
y
a&Zt%#o%2/Tp54/):%:[+E=+c%)$X++(/ V(>YH2Jz
aA=vi:3>y)ij'7kjs5XGy=R[g5J#+:ib:Si;i9! Tl
[
,?+*72'S5Iw/Lf[$VU(K-W',Z'F=Dhs7Jx(/1S)h3p2jZ
aA=v4:3>y)ij'7kjs5XGy=3Iu-,\s3ux:$=+P('Uyt33HY
6
9?80sW7KJS(xeO%2/jPS9'7r0WH#-W(E1:7b]pc($\L
s3i)9Ea9HU+=3>y)Bj/6qEL/5C C9Ea9HU+=3>y)Bj/6qEL/5% Q[U2)!]J3[*(==Uq
%n S(74/):*:-)gh>'1A<54=<Q8z57JWcE h5hV)*[*0
[=Vl:3>Y)IJ'7KJS5xgY=3iU-4\U:3>Y)IJ'7KJS5xgY=r[G5j#pH21vT33jy
k s;74/):*:-)GH>'1a<54=<q8Z574/):*:-)GH>'1a<5% Q' 2*!-L>:/(==Yq
%[V:$)gh>$1W'S5Ic/>p-)%K=W[j$)gh>$1W'S5Ic/>p-)%K=r[G7j#UHS*t0E<63$Z
a7<3w7kjs(XEo%2/Jps9'7R0wh#-w7kjs(XEo%2/Jps9'7R0w3#/uW9/-)BjPM*\H([
gpP'Xf[$Vj(QeA9h-+%\Lf39e#+'Xf[$Vj(QeA9h-+%\Lf39e=+C%Y$$+hm21YT33ly
kGH0J#o%2/Tp54/):%:[+EofBl78B#+:[b);$;i9! yl
s34>9Ea9HU+=3>y)Bj/6qEL/5C C9Ea9HU+=3>y)Bj/6qEL/5% Q[U27!j+p: (==Uq
%[V+$)gh>$1W'S5Ic/>p-)%K=W[j$)gh>$1W'S5Ic/>p-)%K=r[G7j#pH:JS00.pw6
>h0$#O%2/tP54/):%:[+eOFbL78b#O%2/tP54/):%:[+eOFbLl8633:[B:5E;I9! tL
s2Pp$xF[$vJ(qEa9H-+%\lF39E#+'x:$=+Lp2v+t33JY
kGH0>#o%2/Tp54/):%:[+EofBl78B#+:'bs)=3,9! Tl
s34#9Ea9HU+=3>y)Bj/6qEL/5C C9Ea9HU+=3>y)Bj/6qEL/5% Q[U2S!-Lp$v(==Uq
%[J:$)gh>$1W'S5Ic/>p-)%K=W[j$)gh>$1W'S5Ic/>p-)%K=r[G7j#lH$1h0b<63$Z
aA=5P:3>y)ij'7kjs5XGy=3Iu-4\u:/x)zX;,#(257i8
/z[jJ$)GH>$1w's5iC/>P-)%k=w[J$X#3h(fT90.PW6
>!7$;W7KJS(xeO%2/jPS9'7r0WH#-W(9/-)bRj3*\h([
gd32/2'S5Iw/Lf[$VU(K-W',Z'!=%2P7Rx((uvs0.pw6
>!7$RW7KJS(xeO%2/jPS9'7r0WH#-W(9u-9x;p)*\h([
gd32J2'S5Iw/Lf[$VU(K-W',Z'!=%2P73x3S E*0.pw6
>!7$uW7KJS(xeO%2/jPS9'7r0WH#-W(9 -7bJ+m*\h([
8
<?=2'$)GH>$1w's5iC/>P-,\sC:x:zXj+3s*V5e*[Y
k y*74/):*:-)GH>'1a<5% Q'/2's5iW/lF[$vu(k-w3#/u39v-7Hr+p*\H([
gp)(Xf[$Vj(QeA9h-+%\Ll86-I:3>Y)IJ'7KJS5xgY=r[G5j#4H[ut5E<63$Z
a7ijw7kjs(XEo%2/Jps9'f=dJ)74/):*:-)GH>'1a<54=<q8Z57vXE'UT90.PW6
>!7I3W7KJS(xeO%2/jPS9'F=Dj)7JWmEJt9Iy)*[*0
L
F& 9XxF[$vJ(qEa9H-+%\lL86-H:/b:pX3u#ujV6D8
/3$%2's5iW/lF[$vu(k-w3#/u)9Ea9HU+=3>y)Bj/6qEL/5C C9%-SBv3p*\H([
gd3$u2'S5Iw/Lf[$VU(K-W3#/U)9120!]lw$/(==uQ
y
a&Zt%#o%2/Tp54/):%:[+E=+c%+$X++(/ y9=vH2Jz
a7ivw7kjs(XEo%2/Jps9'f=dJ074/):*:-)GH>'1a<5% Q'j2)!5u>$ (==Uq
%[*+$)gh>$1W'S5Ic/>p-,\ScIXf[$Vj(QeA9h-+%\Lf39e#+'XjZjVI)'257I8
/3$j2's5iW/lF[$vu(k-w3#/up9Ea9HU+=3>y)Bj/6qIZ.B;w>efs;H5)*[*0
[O3jw9eA9hu+=3>Y)bJ/6Qiz.bRW(9/-9ERje*\h([
8
<?=2'$)GH>$1w's5iC/>P-,\sC(x:zXj+puUV0.:q
%n t*74/):*:-)gh>'1A<5% q'F2P7Vx#' v)0.p)6
Z
[?#<2:3>y)ij'7kjs5XGy=R[gSX#+h/1:)HvPp[$\l
s3J#9Ea9HU+=3>y)Bj/6qIZ.Jjw7kjs(XEo%2/Jps9'f=dsp7UX>/1V70.PW6
>!7>JW7KJS(xeO%2/jPS9'F=D)P7JWmEV);b-)*[J0
L
F& 9XxF[$vJ(qEa9H-+%\lL86-L:/b:pXv,W$/H6D8
/z[hH$)GH>$1w's5iC/>P-,\sCsx:$=+,3[*Ht33HY
6
9?80sW7KJS(xe=+CVS$x++(/u+5x]32jZ
aA=Yu:3>y)ij'f=d+)7jw#e y0<;)*[*0
L
F& 9XxF[$vJ(qIZ.$5w(e1:pJYi)(/i [
gd3Su2'S5Iw/Ll865h:/XEZjupwU257I8
q
5&[(J74/):*:-)gh>'1  %e=+C%)$x++(/%h(I]j2jZ
a7>vw7kjs(XEo%2/Jpy:2=R[g5J#o%2/Tp54/):%:vDS'f=dJ)7rXC/*+*0.PW6
>!7>RW7KJS(xeO%2/jPY:2=r[G5j#+::Bj5xV49! tL
[
,?+*72'S5Iw/Lf[$VU(%_'-,\Sc2X:ZxJ+3U*t*h*[y
kGH*$#o%2/Tp54/):%:vDS'f=dJ97jw)eU+5J<63$z
0
N|\) 9eA9hu+=3>Y)bJ;TxLf8YeOu]LzP7Jx(/1js=Vle]_0
[O3lw9eA9hu+=3>Y)bJ;TxLf8YeOu]LzP7JW3E%Y)h5)*[J0
L
F& 9XxF[$vJ(qEa9H-+OJ7w3#/3E91-pXjJ(s :*.:q
%n v*74/):*:-)gh>'1  %e=+Cuv$x#jH/HhP><632Z
0
N|\) 9eA9hu+=3>Y)bJ;TxLl86;p:/B:Px]4>I/j6d8
/z[he$)GH>$1w's5iC/p\j5% Qu 2p7;XEsUe)0.P)6
Z
[?#<2:3>y)ij'f=de77jX(/1y)XrPC]_0
[O3,(9eA9hu+=r[G;=#+:2BSP<3U9! YL
[
,?+*72'S5Iw/Lf[$VU(%_'-,\Sc$X:ZxJ+)(%+*h*[y
kGH;=#o%2/Tp54/):%:vDS'f=dJ(7jw3evySH3)*[j0
L
F& 9XxF[$vJ(qIZ.ejw(e1:p>j,3(/i [
gd3(%2'S5Iw/Ll86]+:/XSZj;4wS257$8
q
5&[(J74/):*:-,\S#UX:ZxJ+)21S9E*[y
kGH;J#o%2/Tp5% Q(U2p75X)//y;0.P)6
Z
[?#<2:3>y)ij'7==Zv<9'7o[w8X#+h/1:7BYJWi$\l
s2P#:xF[$vJ(qEZG#d46qEo85\+:/xJz>-LCs257i8
q
5&[(J74/):*:-,\Se2X:ZxJ+)$*:5$*[y
kGH;<#o%2/Tp5% Qsj2p73X)$fV70.P)6
Z
[?#<2:3>y)ij'f=d+07jX(/1)SH5+>]_0
[O3,)9eA9hu+=r[G0<#+:[B:;=5l9! YL
[
,?+*72'S5Iw/Lf81\;m\Lf>#e (9*-sjR+#*\:0.:Q
%n E(74/):*:-)\$+%up-)k ==12P7yxe'%Ss0.pe6
Z
[?#<2:3>y)ij'f=dH7=#+h/1:)XjPE]_0
[O3,e9eA9hu+=r[G7=3W(9 -)b;U3*\h9[
8
<?=2'$,\s>:ly$X++('hs5e]Tt6
>!7E]WF=DS)55W(9%-*h-,#*\h0[
8
<?=2'$,\s>ily$X++('/+;B-Tt6
>!5xJWF=DS055W(9%-)<]Uc*\h0[
8
<?=2'$,\s>:lT$X++('j)5<vTt6
>!5x3WF=DS)5uW(9%-9j-4>*\h0[
8
<?=2'$)GH>$1w3#/4E91-pXjHp(h+0.:q
%n%:574/):*:-,\SPSX:$$+4#SV+T33hy
6
9?80sWF=DS05uW(E1:5<-+3U$\L
s2u(uxL86v4=$x:$B+4C/ )t334Y
6
9?80sWF=DS)5yW(E1:5$;4P'$\L
s2u(:xL86vi=sx:$B+HMivJt334Y
6
9?80sW7KJS(xeO%2/jP1*'7r0W3#/U>91-PxJI3/*t6d8
/z'1+$)GH>$1w's5iC/=i-)%k=R[g5H#+:[b:;Jri9! yl
[
,?+*72'S5Iw/Lf[$VU(5$W3#/Um91-PxJp>'Vj*.:Q
%n%:974/):*:-)gh>'1;65% q'u2P7-xm$%E)0.pw6
Z
[?#<2:3>y)ij'7kjs5X[T=R[g5<#+h/1:5=Y4Ms$\l
s-+W9Ea9HU+=3>y)Bj$2qIZ.Brw7kjs(XEo%2/Jp1*'f=dJS7rX('*Vt33JY
kGJp>#o%2/Tp54/):%:G.E=+c%+$X#4h(hT9<<63$z
0
N|\) 9eA9hu+=3[;8Y3t=3mz-#JW(E1:P=;,((uI [
gdc/F2'S5Iw/Lf81\;3]Lf>#e (9127!5I3SJ(==uQ
y
a&Zt%#o%2/Tp5% Q2%2p!j+(uf+pi-Tt6
>!5=JW7KJS(xe=+CJj$x#pH'Jh9<<632Z
0
N|\) 9eA9hu+=r[G9j#+H/1:sbV3P]_0
[O-p39eA9hu+=r[G9j#+:SBY7$Rp9! tL
[
,?+*72'S5Iw/Lf[$VU(5$W3#/U)91-PxJp>(JS6d8
/C[%2's5iW/lF[$vu(5$w3#/u)9Ea9HU+=3>y)Bj$2qIZ.Brw>e*V*H-)*[*0
[O-pm9eA9hu+=3>Y)bJ$2Qiz.b5W(9H-5b;j9! tL
[
,?+*72'S5Iw/Lf[$VU(5$W3#/3(91-PxJIe'H+(.:Q
%n%h)74/):*:-)gh>'1;65% qU12P7;x>(H+)0.p)6
Z
[?#<2:3>y)ij'7kjs5X[T=R[g5>#+h/1:)HYL#u$\l
s2u3ixF[$vJ(qEa9H-+']lL86-L:/xHze33p:257$8
q
5&[(J74/):*:-)gh>'1;65% q'F2P!J+(I*:5>VtT6
>!5=5W7KJS(xeO%2/jP1*'F=Dj;7JWPE1S9=3)*[J0
L
F& 9XxF[$vJ(qIZ.>;w(e1:pJY3)'$\l
s2u3$xF[$vJ(qIZ.>;w(9f-*>jLE*\H([
8
<?=2'$)GH>$1w's5iC/3P-,\sC2x:zXj+3'Uy;.:q
%n%h*74/):*:-)gh>'1/<5% q'J2P7Rxm(HtT33jy
6
9?80sW7KJS(xeO%2/jP-9'F=Dj07Jx(/1h0huIe]_0
[b3,:3>Y)IJ'7KJS5x0Y=r[G5<#O%2/tP54/):%:X+e=+C%Y$h+Im(*YT33jy
kGJ5X#o%2/Tp54/):%:x+E=+c%+$X#3h(%V9><63$z
0
N|\) 9eA9hu+=r[G;h#+H/1:(x;3(:$\L
s2uC[xF[$vJ(qIZ.evw(9*-pJ;+>*\H9[
8
<?=2'$)GH>$1w3#/P(ux:zXj+E/v:)e*[Y
kGJ5B#o%2/Tp5% Q[1)$X#ih:%sS=<632z
0
N|\) 9eA9hu+=3>Y)bJf6QezV5492Q[:$x++(/ Y0byj2jZ
aAB-3:3>y)ij'7kjs5X0y=3[ -)KT==12p73X('*st33HY
6
9?80sW7KJS(xeO%2/jP-9'F=D)*7Jx(/1Y*=-3w]_0
[O-U>9eA9hu+=3>Y)bJf6Qiz.jyW(9J-*=-3w*\h9[
8
<?=2'$)GH>$1w's5iC/3P-,\sC$x:zXj+)u1Vp=*[Y
kGJ5<#o%2/Tp54/):%:x+E=+c%T$X#Ph2%)(=<632z
0
N|\) 9eA9hu+=3>Y)bJf6Qiz.j3W(E1:7x5p3$$\L
s2uC2xF[$vJ(qEa9H-+[\lL86;P:/xszB-JW$257$8
q
5&[(J74/):*:-,\S3//2P!J+(2 h;>utT6
>!5buW7KJS(xe=+C :)7JW3EV+;x])*[J0
L
F& 9XxF[$vJ(qIZ.=ju:/b:pX]3p(%V6D8
/z'%V$)GH>$1w3#/P('x:$J+J#$/et33HY
6
9?80sW7KJS(xeO+5[ )+eOu=LzP7uxP$F+)0.+P]_0
[O-U#9eA9hu+=3[;8YVY=3mz-#JW(9%-5=Rlc*\h([
8
<?=2'$)GH>$1w3#/P3ix:zXj+>[h)pJ*[Y
kGJSX#o%2/Tp5% Q[ +$X#ih$/s*B<63$z
0
N|\) 9eA9hu+=3>Y)bJ$6Qiz.byW(E1:P<R+([*I [
gdcU 2'S5Iw/Lf[$VU(5-W3#/Ue9125!343IH(==5Q
y
a&Zt%#o%2/Tp5% Q[ y$X++(/UT(>-J2Jz
aAB;u:3>y)ij'f=dH7$#+:sbJ5XjP9! Tl
[
,?+*72'S5IwU3W'S5I(SLl863+:/B:Pb]heIuI [
gdcUu2'S5IwU3W'S5I(SLl863+:/XSZI3+3[257$8
q
5&[(J7% q:JW*7Jx(/%+;<JU2jZ
aAB;i:R[g)$EL:/xJz<]4('257<8
q
5&[(J74/):*:-)gh>'1;65% qUJ2P!J+('1j(j3tT6
>!5jRW7KJS(xeO%2/jP1*'F=D)97JW3E/t7$;)*[*0
L
F& 9XxF[$vJ(qEa9H-+']lF39E=+c%+$X++(/%)SBUH2Jz
aAB;H:3>y)ij'7kjs5X[T=3Iu-,\sCix:$J+4C[Uyt33JY
6
9?80sW7KJS(xeO%2/jP1*'7r0W3#/U#91-PxJpP2/S9.:Q
%n%)(74/):*:-)gh>'1;654=<Qiz.b]W(9J-9=-lm*\h([
8
<?=2'$)GH>$1w's5iC/=i-)%k=R[g5J#+h/1:7ej3E($\l
s2uMsxF[$vJ(qEa9H-+']lF39E=+c%)$X#,h/j+7H<63$z
0
N|\) 9eA9hu+=3>Y)bJ$2Qiz.jRW(E1:P=;,m2/I [
gdcUF2'S5Iw/Lf[$VU(5$W3#/3P912;!-I3[%(==uQ
y
a&Zt%#o%2/Tp54/):%:G.E=+cUT$X++(/ V5J;P2Jz
a5Hjw7kjs(XEo%2/Jp1*'f=d)(74/):*:-)GH>'1;65% Quj2)!;+>'j(==Uq
%n%S774/):*:-)gh>'1;65% qU*2P75x>/1Y70.pw6
Z
[?#<2:3>y)ij'7kjs5X[T=3Iu-,\sC2x:zXj+3svH7.:q
%n%S574/):*:-)gh>'1;654=<Qiz.b5W(9H-;j-33*\h([
8
<?=2'$)GH>$1w's5iC/=i-,\sC'x:zXj+3u%s9=*[Y
kGJ)J#o%2/Tp54/):%:G.E=+c%J$X#3h2hy9=<63$z
0
N|\) 9eA9hu+=3>Y)bJ$2Qiz.j;W(E1:PbJUw2%I [
gdc:/2'S5Iw/Lf[$VU(5$W3#/3m9127!Jj#'H(==5Q
y
a&Zt%#o%2/Tp54/):%:G.E=+c/J$X++(/ T(erTt6
>j)<#O%2/tP54/):%:g.e=+C/j$)gh>$1W'S5Ic/=I-,\SmUX+Z>JIP[257>8
/z'/y$)GH>$1w's5iC/=i-,\s>'x:$J+uW//(==Uq
y
a&Zt%#o%2/Tp54/):%:G.E=+cUJ$X++(/ +5<r,2Jz
a5HUw7kjs(XEo%2/Jp1*'f=d)574/):*:-)GH>'1;65% Q:%2)!5+C( (==Uq
%n%S*74/):*:-)gh>'1;65% qU%2P7-xc:Fvs0.pw6
Z
[?#<2:3>y)ij'7kjs5X[T=3Iu-,\sM[x:zXj+3:/T)>*[Y
k%s;74/):*:-)GH>'1;654=<qIZ.J3w7kjs(XEo%2/Jp1*'f=d)57rX([/J*0.PW6
>!5<JW7KJS(xeO%2/jP1*'7r0W3#/339127!3lm[257I8
q
5&[(J74/):*:-)gh>'1;654=<Qiz.j-W(E1:P=uheUJI [
gUP[Xf[$Vj(QeA9h-+']Lf39e=+Cuj$)gh>$1W'S5Ic/=I-)%K=r[Gs=#IH2Vj)=<63$Z
aABru:3>y)ij'7kjs5X[T=3Iu-,\sM'x:$i+3Ci257i8
q
5&[(J74/):*:-)gh>'1;654=<Qiz.jVW(E1:P=Vj3$*I [
gdcIu2'S5Iw/Lf[$VU(5$W',Z'F=D))7JW)EJYP<])*[*0
L
F& 9XxF[$vJ(qEa9H-+']lF39E=+c%T$X++(/ s9iU42Jz
a5<vw7kjs(XEo%2/Jp1*'7R0w3#/uW9Ea9HU+=3>y)Bj$2qEL/5% Q'j20!3HW/U(==Uq
%n%+074/):*:-)gh>'1;654=<Qiz.buW(9%-)bu3w*\h([
8
<?=2'$)GH>$1w's5iC/=i-,\s>[x:zXj+3[%T*i*[Y
k%+974/):*:-)GH>'1;65% Q: 2's5iW/lF[$vu(5$w3#/uC9/-9B]4)*\H([
gdcI*2'S5Iw/Lf[$VU(5$W3#/I39129!5I#[ (==uQ
y
a&Zt%#o%2/Tp54/):%:G.EofBlL8633:/b:pXvJ)'1s6D8
/z'vV$)GH>$1w's5iC/=i-)%k=R[g7J#+:[bs5erJ9! yl
[
,?+*72'S5Iw/Lf[$VU(5$W3#/I(91-PxJ33$JY0.:Q
%'VE$)gh>$1W'S5Ic/=I-,\S>/Xf[$Vj(QeA9h-+']Ll86;+:$BY)<Jh9! tL
s2u)/xF[$vJ(qEa9H-+']lL86v+:/xJz=]3)u257$8
q
5&[(J74/):*:-)gh>'1;65% q' 2P!J+([Jt7IVtT6
>j9=#O%2/tP54/):%:g.e=+C%h$)gh>$1W'S5Ic/=I-)%K=r[G5I#4H'/j*h<63$Z
aAB5u:3>y)ij'7kjs5X[T=R[g5=#+:ibJ9XUH9! Tl
[
,?+*72'S5Iw/Lf[$VU(5$W3#/U>91-PxJpPUFS9.:Q
%'J)$)gh>$1W'S5Ic/=I-,\Sc:Xf[$Vj(QeA9h-+']Ll86-3:IBh(I;h9! tL
s-H>9Ea9HU+=3>y)Bj$2qIZ.Bvw7kjs(XEo%2/Jp1*'f=dJ77rX3'U)90.PW6
>!5$RW7KJS(xeO%2/jP1*'F=Dj)7JW>E%+($<63$Z
0
N|\) 9eA9hu+=3>Y)bJ$2Qel/5% q[J2P!J+(:1j7$3tT6
>!5$5W7KJS(xeO%2/jP1*'7r0W3#/p)9129!yjP/*(==uQ
y
a&Zt%#o%2/Tp54/):%:G.EofBlL86;3:/b:pX3H([fH6D8
/C2*2's5iW/lF[$vu(5$w',z'f=d)S74/):*:-)GH>'1;654=<qIZ.Jvw>ev:S<;)*[*0
[O-he9eA9hu+=3>Y)bJ$2Qel/5% qUu2P7ux3(/Y70.pw6
Z
[?#<2:3>y)ij'7kjs5X[T=3Iu-4\u:/b:p=-LMu%i [
gdc2F2'S5Iw/Lf[$VU(5$W',Z'!=%2P73xPU%+T33jy
k%Tp74/):*:-)GH>'1;654=<q8Z574/):*:-)GH>'1;654=<qIZ.=;wpevsS=])*[*0
[O-j39eA9hu+=3>Y)bJ$2Qel/5c c912s!5hw'%(==uQ
%n%t574/):*:-)gh>'1;654=<Q8z57JW3E%E)bu)*[*0
[bu3:3>Y)IJ'7KJS5x[t=3iU-4\U:3>Y)IJ'7KJS5x[t=3iU-,\S3UXEZ=V,)'257I8
/z'*s$)GH>$1w's5iC/=i-)%k=w[J$X#Ph/U:)0.PW6
>j(<#O%2/tP54/):%:g.eOFbL78b#O%2/tP54/):%:g.e=+C%h$=++#//+T33jy
k%T974/):*:-)GH>'1;654=<q8Z574/):*:-)GH>'1;654=<qIZ.=;wWejV5<3)*[*0
[buj:3>Y)IJ'7KJS5x[t=3iU-4\U:3>Y)IJ'7KJS5x[t=3iU-,\Sc2XvZ$-3e'257>8
/C$h2's5iW/lF[$vu(5$w',z'!=%2's5iW/lF[$vu(5$w',z'f=dJ(7rXp(%V(0.PE6
>j(E#O%2/tP54/):%:g.eOFbL78b#O%2/tP54/):%:g.e=+C%Y$=+,P[HET33jy
k%Vp74/):*:-)GH>'1;654=<q8Z574/):*:-)GH>'1;65% Q'v27!jL>/*(==Uq
%n%v774/):*:-)gh>'1;654=<Q8z57JW>E/Esh-)*[*0
[O-lc9eA9hu+=3>Y)bJ$2Qel/5c c9127!;hw2*(==uQ
%n%vs74/):*:-)gh>'1;654=<Q8z57JW3E%h5=])*[*0
[O-l>9eA9hu+=3>Y)bJ$2Qel/5c c9127!;3wSV(==uQ
%n%v074/):*:-)gh>'1;654=<Q8z57JWmEJE)<y)*[*0
[O-l)9eA9hu+=3>Y)bJ$2Qel/5c c912s!;pP[%(==uQ
%n%v(74/):*:-)gh>'1;654=<Q8z57JW>E%vs>y)*[*0
[O-le9eA9hu+=3>Y)bJ$2Qel/5c c912)!;le'F(==uQ
%n%v;74/):*:-)gh>'1;654=<Q8z57JW3EuY50.pw6
>j;x#O%2/tP54/):%:g.eOFbL78b#O%2/tP54/):%:g.e=+C%)$=+hw:JtT33jy
k%e774/):*:-)GH>'1;654=<q8Z574/):*:-)GH>'1;65% Q'/2*!;HCsU(==Yq
%'Fj$)gh>$1W'S5Ic/=I-)%K=W[j$)gh>$1W'S5Ic/=I-,\ScIXSZE54eI257I8
/z'f)$)GH>$1w's5iC/=i-)%k=w[J$X#ih(%+7=<63$z
a5evw7kjs(XEo%2/Jp1*'7R0wh#-w7kjs(XEo%2/Jp1*'7R0w3#/PM9 -pXri3*\H([
gdc(V2'S5Iw/Lf[$VU(5$W',Z'!=%2P73xP$Fh90.pw6
>j;$#O%2/tP54/):%:g.eOFbL78b#O%2/tP54/):%:g.eOFbLl8633:[B:9=-I9! tL
s2u#$xF[$vJ(qEa9H-+']lF39E#+'x:$=+3Cs et33JY
6
9?80sW7KJS(xeO%2/jP1*'7r0W3#/pP91-PxJU)(*Y6d8
/C(h2's5iW/lF[$vu(5$w',z'f=dH074/):*:-)GH>'1;654=<qIZ.=5wpe*T)H])*[*0
[O-,#9eA9hu+=3>Y)bJ$2Qel/5% q[V2P7yxe$%ST33jy
6
9?80sW7KJS(xeO%2/jP1*'7r0W3#/pe91-PxJ3):%Ys.:Q
%U1:$)gh>$1W'S5Ic/=I-)%K=r[G7>#O%2/tP54/):%:g.eOFbLl8634:IBv*$;h9! tL
s23([xF[$vJ(qEa9H-+']lF39E=+c V$X#Lh/jV;><63$z
0
N|\) 9eA9hu+=3>Y)bJ$2Qel/5c 391-Px3+w/uj6d8
/zu1J$)GH>$1w's5iC/=i-)%k=w[H$X#Ph/f);J<63$z
aAJj3:3>y)ij'7kjs5X[T=3Iu-4\P:/x+z=;HC[257i8
/zu1s$)GH>$1w's5iC/=i-)%k=w[H$X#3h$%+S><63$z
aAJj4:3>y)ij'7kjs5X[T=3Iu-4\P:/xHzHYPW'257i8
/zu1y$)GH>$1w's5iC/=i-)%k=w[H$X#Ph[fV;0.PW6
>!sxuW7KJS(xeO%2/jP1*'7r0WH#3W(9 -5jJhm*\h([
gdm/H2'S5Iw/Lf[$VU(5$W',Z'!= 2P7-x3IVvs0.pw6
>!sx]W7KJS(xeO%2/jP1*'7r0WH#3W(9u-9h]+P*\h([
gdm[12'S5Iw/Lf[$VU(5$W',Z'!= 2P7;x>UVv50.pw6
>!s=3W7KJS(xeO%2/jP1*'7r0WH#3W(9 -*<uUc*\h([
gdm[%2'S5Iw/Lf[$VU(5$W',Z'!= 2P73xc[%hs0.pw6
>!s=;W7KJS(xeO%2/jP1*'7r0WH#3W(9 -0h-he*\h([
gdm[/2'S5Iw/Lf[$VU(5$W',Z'!= 2P73x($JYs0.pw6
>)7<#O%2/tP54/):%:g.eOFbL78=#O%2/tP54/):%:g.eOFbLl86;U:[BS7>Jj9! tL
s;P)9Ea9HU+=3>y)Bj$2qEL/5C 39Ea9HU+=3>y)Bj$2qEL/5% Qu 27!]4p'U(==Uq
%nuh(74/):*:-)gh>'1;654=<Q8z77JW>E%jP=<63$Z
aS=Yw7kjs(XEo%2/Jp1*'7R0wh#3w7kjs(XEo%2/Jp1*'f=d)573Xp$j)S0.PW6
>)7E#O%2/tP54/):%:g.eOFbL78=#O%2/tP54/):%:g.e=+C/j$<+3)(1)T33ly
kG)5X#o%2/Tp54/):%:G.EofBl78=#+:uby5B]39! Tl
s23C[xF[$vJ(qEa9H-+']lF39E#+[x:$J+i>//Jt33JY
kG)5B#o%2/Tp54/):%:G.EofBl78=#+:'bJ)$-,9! Tl
[
,?+*72'S5Iw/Lf[$VU(--W3#/3>91-PxJpPI1Y).:Q
%nujs74/):*:-)gh>'1/<5% qU/2P7Vx#:J:*0.pw6
Z
[?#<2:3>y)ij'7kjs5X0y=R[gSJ#+h/1:7i]4>($\l
s;u>9Ea9HU+=3>y)BjF6qIZ.J;w7kjs(XEo%2/Jp-9'f=d))7vXE2j+)0.PW6
>!sbRW7KJS(xeO%2/jP-9'F=D)s7JWeEu:9b-)*[*0
L
F& 9XxF[$vJ(qEa9H-+[\lL86vu:/b:pX3L#2vT6D8
/M'j2's5iW/lF[$vu(--w3#/iC9Ea9HU+=3>y)BjF6qIZ.J;w)e1Vp>r)*[h0
[O;Uw9eA9hu+=3>Y)bJf6Qiz.h-W(9%-5h;he*\h([
8
<?=2'$)GH>$1w's5iC/3P-,\sM'x:zXj+3$*+7e*[Y
kUJ*74/):*:-)GH>'1/<5% Qu%2's5iW/lF[$vu(--w3#/iC9/-(B3+3*\H([
gdm'F2'S5Iw/Lf[$VU(--W3#/3c912s!;l)/H(==uQ
y
a&Zt%#o%2/Tp54/):%:x+EofBlL86;i:/b:pX3J3u/+6D8
/zuU:$)GH>$1w's5iC/3P-)%k=R[gSH#+:$b+*=],9! Tl
[
,?+*72'S5Iw/Lf[$VU(--W3#/U>91-PxJp>'%j*.:Q
%nu)774/):*:-)gh>'1/<5% q'/2P7-x)[ :00.pw6
Z
[?#<2:3>y)ij'7kjs5X0y=R[g5J#+h/1:7<YiM($\l
s;3C9Ea9HU+=3>y)BjF6qIZ.B;w7kjs(XEo%2/Jp-9'f=dJ07vX#( s50.PW6
>)sj#O%2/tP54/):%:X+e=+C%)$)gh>$1W'S5Ic/3p-,\Sc:X+Z=],#'257I8
/zuUs$)GH>$1w's5iC/3P-,\sCux:$H+3(uvHt33JY
6
9?80sW7KJS(xeO%2/jP-9'7r0W3#/Uw91-PxJp>S%)0.:Q
%nu)074/):*:-)gh>'1/<54=<Qiz.buW(9 -;h3pw*\h([
8
<?=2'$)GH>$1w's5iC/3P-,\s>[x:zXj+3[jVp=*[Y
kG)S$#o%2/Tp54/):%:x+E=+c/H$X#Hh(%T7i<63$z
0
N|\) 9eA9hu+=3>Y)bJ$2Qiz.jVW(E1:P=RIm($\L
s;3W9Ea9HU+=3>y)Bj$2qIZ.Jvw7kjs(XEo%2/Jp1*'f=d)S7vXW:vVS0.PW6
>)s>#O%2/tP54/):%:g.e=+CuS$)gh>$1W'S5Ic/=I-,\Sc'XSZE-,#'257I8
/zuUe$)GH>$1w's5iC/=i-,\sM:x:$<++3i%yt33JY
6
9?80sW7KJS(xeO%2/jP1*'7r0W3#/pw91-PxJ3mU Y5.:Q
%U/:$)gh>$1W'S5Ic/=I-)%K=r[G7I#O%2/tP54/):%:g.eOFbL78=#lHSJj;><63$Z
aSH3w7kjs(XEo%2/Jp1*'7R0w3#/PW9Ea9HU+=3>y)Bj$2qEL/5C 39j-0iUip*\H([
g3>'Xf[$Vj(QeA9h-+']Lf39e=+C t$)gh>$1W'S5Ic/=I-)%K=W[h$=+I)/%ET33jy
kUsS74/):*:-)GH>'1;654=<qIZ.=Uw7kjs(XEo%2/Jp1*'7R0wh#3w3e1e*>r)*[*0
[O;I>9eA9hu+=3>Y)bJ$2Qel/5% q[*2P73xcIJts0.p)6
Z
[?#<2:3>y)ij'7kjs5X0y=3Iu-,\sCux:zXj+3ijy7=*[Y
kG))<#o%2/Tp54/):%:x+EofBlL86-3:/xyzX-uW:257i8
q
5&[(J74/):*:-)gh>'1/<54=<Qiz.bRW(E1:PbV,):uI [
gdm:J2'S5Iw/Lf[$VU(--W',Z'F=Dj07JWmE1Y7<y)*[*0
L
F& 9XxF[$vJ(qEa9H-+[\lF39E=+c%e$X++(/ +S=UL2Jz
aAJvJ:3>y)ij'7kjs5X0y=3Iu-,\sC(x:$$+L3ufVt33JY
6
9?80sW7KJS(xeO%2/jP-9'7r0W3#/U>91-PxJ4mUVj;.:Q
%nuS*74/):*:-)gh>'1/<54=<Qiz.bVW(9 -)j;l)*\h9[
8
<?=2'$)GH>$1w's5iC/3P-,\sM$x:zXj+3u*+)e*[Y
kG))e#o%2/Tp54/):%:x+E=+cUT$X#4hsvJ9<<63$z
0
N|\) 9eA9hu+=3>Y)bJf6Qiz.j5W(E1:PbRIm(*I [
g3P/Xf[$Vj(QeA9h-+[\Ll86;h:3>Y)IJ'7KJS5x0Y=r[GsI#IHI h;h<63$Z
aAJrP:3>y)ij'7kjs5X0y=R[gS$#+:ub:S<;i9! Tl
[
,?+*72'S5Iw/Lf[$VU(--W3#/3P91-PxJp>/%+7.:Q
%nu+574/):*:-)gh>'1/<5% qUV2P7]x>[%+(0.pw6
Z
[?#<2:3>y)ij'7kjs5X0y=R[gSe#+h/1:5J3HWi$\l
s;4M9Ea9HU+=3>y)BjF6qIZ.J]w7kjs(XEo%2/Jp-9'f=d)07vX)[%+(0.PW6
>!s<VW7KJS(xeO%2/jP-9'F=D);7JW3E/Y*ER)*[J0
L
F& 9XxF[$vJ(qEa9H-+[\lF39E=+cU:$X++(//+9HUTt6
>!s<RW7KJS(xeO%2/jP-9'7r0W3#/3(9127!-hm'J(==5Q
y
a&Zt%#o%2/Tp54/):%:G+E=+cUe$X++(/%JpJYJ2Jz
aAJrH:3>y)ij'7kjs5X[y=R[gSe#+:[b)0B5u9! yl
[
,?+*72'S5Iw/Lf[$VU(5-W3#/3)91-PxJUcS1E(.:Q
%nu+(74/):*:-)gh>'1;<5% qUJ2P7;xPI*S;0.pw6
Z
[?#<2:3>y)ij'7kjs5X[y=R[gSi#+h/1:7JYP>'$\l
s;4E9Ea9HU+=3>y)Bj$6qIZ.JUw7kjs(XEo%2/Jp19'f=d)97vXMijTS0.PW6
>!s<]W7KJS(xeO%2/jP19'F=D)(7JWPEJ)(=<63$Z
0
N|\) 9eA9hu+=3>Y)bJ$6Qel/5% q'u2P!J+([*j)$utT6
>!s$JW7KJS(xeO%2/jP19'7r0W3#/Um912(!R4>[u(==uQ
y
a&Zt%#o%2/Tp54/):%:G+EofBlL86-4:/b:pX-+pu*V6D8
/zujH$)GH>$1w's5iC/=P-)%k=R[g5<#+:'be)=3,9! Tl
[
,?+*72'S5Iw/Lf[$VU(5-W3#/Um91-PxJpP$FS0.:Q
%nuY574/):*:-)gh>'1;<5% q'u2P7Vxm:FS00.pw6
Z
[?#<2:3>y)ij'7kjs5X[y=R[gSJ#+h/1:7eYiC[$\l
s23)uxF[$vJ(qEa9H-+'\lL86;3:/xHz=U3Ci257$8
q
5&[(J74/):*:-)gh>'1;<5% q:%2P!J+([Ft*$VtT6
>!s$VW7KJS(xeO%2/jP19'F=DS57JWmEujPE<63$Z
0
N|\) 9eA9hu+=3>Y)bJ$6Qiz.j-W(E1:P=u3e[HI [
g3)IXf[$Vj(QeA9h-+'\Ll86;U:3>Y)IJ'7KJS5x[Y=r[G)b#IH$H+sE<63$Z
aAJ5H:3>y)ij'7kjs5X[y=R[gSB#+:ub)7eY,9! Tl
[
,?+*72'S5Iw/Lf[$VU(5-W',Z'F=D)57Jx(/1h*b]l>]_0
[O;hw9eA9hu+=3>Y)bJ$6Qel/5% qU%2P7yxP:%+50.pw6
Z
[?#<2:3>y)ij'7kjs5X[y=3Iu-,\sM:x:zXj+32%J)e*[Y
kG)9>#o%2/Tp54/):%:G+EofBlL86;i:/xyzJr+3[257i8
q
5&[(J74/):*:-)gh>'1;<54=<Qiz.j;W(E1:P=RIcUHI [
g3)(Xf[$Vj(QeA9h-+'\Lf39e=+Cu)$)gh>$1W'S5Ic/=p-)%K=r[Gsh#4H'*Y9<<63$Z
aAJU+:3>y)ij'7kjs5X[y=3Iu-,\sMux:$<+3Es/Ht33JY
6
9?80sW7KJS(xeO%2/jP19'7r0W3#/U)91-PxJp#2*S;.:Q
%nut774/):*:-)gh>'1;<54=<Qiz.b5W(9F-)jVpm*\h([
8
<?=2'$)GH>$1w's5iC/=P-,\sC:x:zXj+3iU)(J*[Y
kUT574/):*:-)GH>'1;<5% Q'/2's5iW/lF[$vu(5-w3#/uM9v-7HUL9! Tl
s23WuxF[$vJ(qEa9H-+'\lL86-i:/xsz=5+#2257i8
q
5&[(J74/):*:-)gh>'1;<54=<Qiz.buW(E1:P=;l32uI [
g3w:Xf[$Vj(QeA9h-+'\Lf39e=+C%t$)gh>$1W'S5Ic/=p-)%K=r[G5$#IH$HE7j<63$Z
aAJU4:3>y)ij'7kjs5X[y=3Iu-,\sC$x:$B+43'%yt33JY
6
9?80sW7KJS(xeO%2/jP19'F=Dj97Jx(/1h7E;,w]_0
[O;j)9eA9hu+=3>Y)bJ$6Qiz.b5W(9V-sE3h#*\h([
8
<?=2'$)GH>$1w's5iC/=P-)%k=R[g7J#+h/1:SeYL(i$\l
s23W$xF[$vJ(qEa9H-+'\lF39E=+c )$X#Ph[1T7=<632z
0
N|\) 9eA9hu+=3>Y)bJ$6Qiz.jJW(E1:PhJU>:JI [
gdm$H2'S5Iw/Lf[$VU(5-W3#/3(912s!3Um(%(==5Q
y
a&Zt%#o%2/Tp54/):%:G+EofBlL863L:/b:pX;,>sUi [
gdm$F2'S5Iw/Lf[$VU(5-W',Z'F=Dh*7JW#E*Y*Eu)*[*0
L
F& 9XxF[$vJ(qEa9H-+'\lF39E=+c y$X++(//:(<j42Jz
aAJY+:3>y)ij'7kjs5X[y=3Iu-,\s32x:$i+LCs/Vt33JY
6
9?80sW7KJS(xeO%2/jP19'7r0W3#/pP91-PxJ3>[1j;.:Q
%UHh$)gh>$1W'S5Ic/=p-)%K=r[G7<#O%2/tP54/):%:g+eOFbLl863l:IBE)h5)*[*0
[jyU:3>Y)IJ'7KJS5x[Y=3iU-,\S3IXf[$Vj(QeA9h-+'\Lf39e=+C Y$<+lP$JST33jy
kG)*J#o%2/Tp54/):%:G+EofBlL8634:/xVzHYH9! Tl
[
,?+*723#/I)QJ2P!J+cI%+5b*[y
kG)*H#=+c/y-$#+:'b+5<-u9! +l
[
,?+*723#/IwQJ2P!J+c2/Y7.:Q
%nuv07% q:*W97JWcEJS9=<63IZ
0
N|\) 9iz.h5'w91-Px-4w$ t6d8
/zuhy$,\s>2lT$X#uhi*T7i<63iz
0
N|\) 9iz.hu'w91-Px-h#UuE6d8
/zuhT$,\s>$lT$X#uh2f)Se<63iz
0
N|\) 9iz.hu'e91-Px-43:VS6d8
/zuhV$,\s>$lV$X#uhi s0H<63iz
0
N|\) 9eA9hu3[QeA9hJl=r[G;7Jx(/%v;>Rp2jZ
aAJY,:3>y)i;F=3>y)XY'f=de$X#ih/%e9<<632z
0
N|\) 9$3Tr*O[91-7x54#$$\L
s23#/xi:0$T7-x:$e+JC$f+t334Y
kUe77*590$Fx74/):*Jx54/):1y-,\sW9 -;>Y,p*\H([
gdm(%268<!2332P7ux32uS70.pP6
>!sE;W2Y2M6)0W(9/-5h-p)*\h9[
gdm(/268<!2332P73xe$*t)0.p>6
>!sERW2Y2M6)0W(9H-5>VUP*\h([
gdm(J268<!2332P7RxP/1S;0.pw6
>!sEuW2Y2M6)0W(9*-5$V4>*\h([
gdm(H268<!2332P7ux)SJt(0.pw6
>!sE]W2Y2M6)0W(9u-7=yh)*\h([
gd>/1268<!2332P7Rxw:FhT33jy
kGsp=#T;*4i'-#+:$bs0J5i9! Tl
s2i('xi:0$T7-x:$H+i)uUst33JY
kGspJ#T;*4i'-#+:[b:0Bri9! sl
sv+>9$3tR*o[9Ea9HUu[qEa9HjH=R[g*73X(u )t33HY
k/:07*590$Fx74/):*Jx54/):1y-,\sW9j-7$UPM*\H([
gI(2XI:0$t7-Xf[$Vjc-Lf[$V+)Qiz.>#pH' +7j<63$Z
a)XUw2y2m6)0w7kjs(B0'7kjsp$E=+ch2*!-HC[j(==Uq
%:1v$.')R]e/$)gh>$%/-)gh>/JW3#/l:[Bh;j-p9! tL
sv+#9$3tR*o[9Ea9HUu[qEa9HjH=R[g*73X3(1T)0.PW6
>S7x#t;*4I'-#O%2/t5-eO%2/:95% qSXhZj3,#:257I8
/>[ 268<!2332's5iW'3w's5i(2lL86Yw3e/:p<Y)*[*0
[h3U:]6(\.4f:3>Y)I-f=3>Y)x5'F=Dv$I+4m[ )T33hy
k/HS7*590$Fx74/):*Jx54/):1y-,\sE9 -)X;+3*\H([
gI3:XI:0$t7-Xf[$Vjc-Lf[$V+)Qiz.>#pH:u)sb<63$Z
a)=rw2y2m6)0w7kjs(B0'7kjsp$E=+ch27!v3Mu%(==Uq
%: Y$.')R]e/$)gh>$%/-)gh>/JW3#/l:[BS)>Jl9! tL
svPW9$3tR*o[9Ea9HUu[qEa9HjH=R[g*73XM(vy(0.PW6
>S7>#t;*4I'-#O%2/t5-eO%2/:95% qSXhZhV+w*\h([
gI3(XI:0$t7-Xf[$Vjc-Lf[$V+)Qiz.>#pH[H+*j<63$Z
a)Bjw2y2m6)0w7kjs(B0'7kjsp$E=+ch27!vu3/U(==Uq
%:%h$.')R]e/$)gh>$%/-)gh>/JW3#/l:[Bh;<549! tL
s2iC'xi:0$T7-x:$=+PE/vVt33JY
k/JS7*590$Fx74/):*Jx54/):1y-,\sE9 -7e;u3*\H([
gd>'/268<!2332P73x(21+)0.pw6